*SPEF "ieee 1481-1999"
*DESIGN "netlist_1"
*DATE "18:49:09 Monday July 29, 2024"
*VENDOR "The OpenROAD Project"
*PROGRAM "OpenROAD"
*VERSION "d423155d69de7f683a23f6916ead418a615ad4ad"
*DESIGN_FLOW "NAME_SCOPE LOCAL" "PIN_CAP NONE"
*DIVIDER /
*DELIMITER :
*BUS_DELIMITER []
*T_UNIT 1 NS
*C_UNIT 1 PF
*R_UNIT 1 OHM
*L_UNIT 1 HENRY

*NAME_MAP
*3 clk
*4 in0
*5 in1
*6 in10
*7 in11
*8 in12
*9 in13
*10 in14
*11 in15
*12 in16
*13 in17
*14 in18
*15 in19
*16 in2
*17 in20
*18 in21
*19 in22
*20 in23
*21 in24
*22 in3
*23 in4
*24 in5
*25 in6
*26 in7
*27 in8
*28 in9
*29 out0
*30 out1
*31 out10
*32 out11
*33 out12
*34 out13
*35 out14
*36 out15
*37 out16
*38 out17
*39 out18
*40 out19
*41 out2
*42 out20
*43 out21
*44 out22
*45 out23
*46 out24
*47 out3
*48 out4
*49 out5
*50 out6
*51 out7
*52 out8
*53 out9
*54 rst
*55 clknet_0_clk
*56 clknet_0_net221
*57 clknet_0_net292
*58 clknet_0_net315
*59 clknet_0_net329
*60 clknet_0_net338
*61 clknet_0_net346
*62 clknet_0_net353
*63 clknet_0_net354
*64 clknet_0_net361
*65 clknet_0_net420
*66 clknet_0_net424
*67 clknet_0_net427
*68 clknet_0_net436
*69 clknet_0_net447
*70 clknet_0_net448
*71 clknet_0_net449
*72 clknet_0_net451
*73 clknet_0_net452
*74 clknet_0_net457
*75 clknet_0_net458
*76 clknet_0_net463
*77 clknet_0_net464
*78 clknet_0_net481
*79 clknet_0_net546
*80 clknet_0_net567
*81 clknet_0_net593
*82 clknet_0_net605
*83 clknet_0_net609
*84 clknet_0_net707
*85 clknet_0_net709
*86 clknet_0_net719
*87 clknet_0_net821
*88 clknet_0_net823
*89 clknet_0_net830
*90 clknet_0_net854
*91 clknet_0_net855
*92 clknet_0_net856
*93 clknet_0_net875
*94 clknet_0_net876
*95 clknet_0_net877
*96 clknet_0_net893
*97 clknet_0_net894
*98 clknet_0_net895
*99 clknet_0_net911
*100 clknet_0_net912
*101 clknet_0_net913
*102 clknet_0_net929
*103 clknet_0_net930
*104 clknet_0_net931
*105 clknet_0_net969
*106 clknet_0_net974
*107 clknet_0_net983
*108 clknet_0_net985
*109 clknet_1_0__leaf_net221
*110 clknet_1_0__leaf_net292
*111 clknet_1_0__leaf_net315
*112 clknet_1_0__leaf_net329
*113 clknet_1_0__leaf_net338
*114 clknet_1_0__leaf_net346
*115 clknet_1_0__leaf_net353
*116 clknet_1_0__leaf_net354
*117 clknet_1_0__leaf_net361
*118 clknet_1_0__leaf_net420
*119 clknet_1_0__leaf_net424
*120 clknet_1_0__leaf_net427
*121 clknet_1_0__leaf_net436
*122 clknet_1_0__leaf_net447
*123 clknet_1_0__leaf_net448
*124 clknet_1_0__leaf_net449
*125 clknet_1_0__leaf_net451
*126 clknet_1_0__leaf_net452
*127 clknet_1_0__leaf_net457
*128 clknet_1_0__leaf_net458
*129 clknet_1_0__leaf_net463
*130 clknet_1_0__leaf_net464
*131 clknet_1_0__leaf_net481
*132 clknet_1_0__leaf_net546
*133 clknet_1_0__leaf_net567
*134 clknet_1_0__leaf_net593
*135 clknet_1_0__leaf_net605
*136 clknet_1_0__leaf_net609
*137 clknet_1_0__leaf_net707
*138 clknet_1_0__leaf_net709
*139 clknet_1_0__leaf_net719
*140 clknet_1_0__leaf_net821
*141 clknet_1_0__leaf_net823
*142 clknet_1_0__leaf_net830
*143 clknet_1_0__leaf_net854
*144 clknet_1_0__leaf_net855
*145 clknet_1_0__leaf_net856
*146 clknet_1_0__leaf_net875
*147 clknet_1_0__leaf_net876
*148 clknet_1_0__leaf_net877
*149 clknet_1_0__leaf_net893
*150 clknet_1_0__leaf_net894
*151 clknet_1_0__leaf_net895
*152 clknet_1_0__leaf_net911
*153 clknet_1_0__leaf_net912
*154 clknet_1_0__leaf_net913
*155 clknet_1_0__leaf_net929
*156 clknet_1_0__leaf_net930
*157 clknet_1_0__leaf_net931
*158 clknet_1_0__leaf_net969
*159 clknet_1_0__leaf_net974
*160 clknet_1_0__leaf_net983
*161 clknet_1_0__leaf_net985
*162 clknet_1_1__leaf_net221
*163 clknet_1_1__leaf_net292
*164 clknet_1_1__leaf_net315
*165 clknet_1_1__leaf_net329
*166 clknet_1_1__leaf_net338
*167 clknet_1_1__leaf_net346
*168 clknet_1_1__leaf_net353
*169 clknet_1_1__leaf_net354
*170 clknet_1_1__leaf_net361
*171 clknet_1_1__leaf_net420
*172 clknet_1_1__leaf_net424
*173 clknet_1_1__leaf_net427
*174 clknet_1_1__leaf_net436
*175 clknet_1_1__leaf_net447
*176 clknet_1_1__leaf_net448
*177 clknet_1_1__leaf_net449
*178 clknet_1_1__leaf_net451
*179 clknet_1_1__leaf_net452
*180 clknet_1_1__leaf_net457
*181 clknet_1_1__leaf_net458
*182 clknet_1_1__leaf_net463
*183 clknet_1_1__leaf_net464
*184 clknet_1_1__leaf_net481
*185 clknet_1_1__leaf_net546
*186 clknet_1_1__leaf_net567
*187 clknet_1_1__leaf_net593
*188 clknet_1_1__leaf_net605
*189 clknet_1_1__leaf_net609
*190 clknet_1_1__leaf_net707
*191 clknet_1_1__leaf_net709
*192 clknet_1_1__leaf_net719
*193 clknet_1_1__leaf_net821
*194 clknet_1_1__leaf_net823
*195 clknet_1_1__leaf_net830
*196 clknet_1_1__leaf_net854
*197 clknet_1_1__leaf_net855
*198 clknet_1_1__leaf_net856
*199 clknet_1_1__leaf_net875
*200 clknet_1_1__leaf_net876
*201 clknet_1_1__leaf_net877
*202 clknet_1_1__leaf_net893
*203 clknet_1_1__leaf_net894
*204 clknet_1_1__leaf_net895
*205 clknet_1_1__leaf_net911
*206 clknet_1_1__leaf_net912
*207 clknet_1_1__leaf_net913
*208 clknet_1_1__leaf_net929
*209 clknet_1_1__leaf_net930
*210 clknet_1_1__leaf_net931
*211 clknet_1_1__leaf_net969
*212 clknet_1_1__leaf_net974
*213 clknet_1_1__leaf_net983
*214 clknet_1_1__leaf_net985
*215 clknet_4_0_0_clk
*216 clknet_4_10_0_clk
*217 clknet_4_11_0_clk
*218 clknet_4_12_0_clk
*219 clknet_4_13_0_clk
*220 clknet_4_14_0_clk
*221 clknet_4_15_0_clk
*222 clknet_4_1_0_clk
*223 clknet_4_2_0_clk
*224 clknet_4_3_0_clk
*225 clknet_4_4_0_clk
*226 clknet_4_5_0_clk
*227 clknet_4_6_0_clk
*228 clknet_4_7_0_clk
*229 clknet_4_8_0_clk
*230 clknet_4_9_0_clk
*231 net0
*232 net1
*233 net10
*234 net100
*235 net1000
*236 net1001
*237 net1002
*238 net1003
*239 net1004
*240 net1005
*241 net1006
*242 net1007
*243 net1008
*244 net1009
*245 net101
*246 net1010
*247 net1011
*248 net1012
*249 net1013
*250 net1014
*251 net1015
*252 net1016
*253 net1017
*254 net1018
*255 net1019
*256 net102
*257 net1020
*258 net1021
*259 net1022
*260 net1023
*261 net1024
*262 net1025
*263 net1026
*264 net1027
*265 net1028
*266 net1029
*267 net103
*268 net1030
*269 net1031
*270 net1032
*271 net1033
*272 net1034
*273 net1035
*274 net1036
*275 net1037
*276 net1038
*277 net1039
*278 net104
*279 net1040
*280 net1041
*281 net1042
*282 net1043
*283 net1044
*284 net1045
*285 net1046
*286 net1047
*287 net1048
*288 net1049
*289 net105
*290 net1050
*291 net1051
*292 net1052
*293 net1053
*294 net1054
*295 net1055
*296 net1056
*297 net1057
*298 net1058
*299 net1059
*300 net106
*301 net1060
*302 net1061
*303 net1062
*304 net1063
*305 net1064
*306 net1065
*307 net1066
*308 net1067
*309 net1068
*310 net1069
*311 net107
*312 net1070
*313 net1071
*314 net1072
*315 net1073
*316 net1074
*317 net1075
*318 net1076
*319 net1077
*320 net1078
*321 net1079
*322 net108
*323 net1080
*324 net1081
*325 net1082
*326 net1083
*327 net1084
*328 net1085
*329 net1086
*330 net1087
*331 net1088
*332 net1089
*333 net109
*334 net1090
*335 net1091
*336 net1092
*337 net1093
*338 net1094
*339 net1095
*340 net1096
*341 net1097
*342 net1098
*343 net1099
*344 net11
*345 net110
*346 net1100
*347 net1101
*348 net111
*349 net112
*350 net113
*351 net114
*352 net115
*353 net116
*354 net117
*355 net118
*356 net119
*357 net12
*358 net120
*359 net121
*360 net122
*361 net123
*362 net124
*363 net125
*364 net126
*365 net127
*366 net128
*367 net129
*368 net13
*369 net130
*370 net131
*371 net132
*372 net133
*373 net134
*374 net135
*375 net136
*376 net137
*377 net138
*378 net139
*379 net14
*380 net140
*381 net141
*382 net142
*383 net143
*384 net144
*385 net145
*386 net146
*387 net147
*388 net148
*389 net149
*390 net15
*391 net150
*392 net151
*393 net152
*394 net153
*395 net154
*396 net155
*397 net156
*398 net157
*399 net158
*400 net159
*401 net16
*402 net160
*403 net161
*404 net162
*405 net163
*406 net164
*407 net165
*408 net166
*409 net167
*410 net168
*411 net169
*412 net17
*413 net170
*414 net171
*415 net172
*416 net173
*417 net174
*418 net175
*419 net176
*420 net177
*421 net178
*422 net179
*423 net18
*424 net180
*425 net181
*426 net182
*427 net183
*428 net184
*429 net185
*430 net186
*431 net187
*432 net188
*433 net189
*434 net19
*435 net190
*436 net191
*437 net192
*438 net193
*439 net194
*440 net195
*441 net196
*442 net197
*443 net198
*444 net199
*445 net2
*446 net20
*447 net200
*448 net201
*449 net202
*450 net203
*451 net204
*452 net205
*453 net206
*454 net207
*455 net208
*456 net209
*457 net21
*458 net210
*459 net211
*460 net212
*461 net213
*462 net214
*463 net215
*464 net216
*465 net217
*466 net218
*467 net219
*468 net22
*469 net220
*470 net221
*471 net222
*472 net223
*473 net224
*474 net225
*475 net226
*476 net227
*477 net228
*478 net229
*479 net23
*480 net230
*481 net231
*482 net232
*483 net233
*484 net234
*485 net235
*486 net236
*487 net237
*488 net238
*489 net239
*490 net24
*491 net240
*492 net241
*493 net242
*494 net243
*495 net244
*496 net245
*497 net246
*498 net247
*499 net248
*500 net249
*501 net25
*502 net250
*503 net251
*504 net252
*505 net253
*506 net254
*507 net255
*508 net256
*509 net257
*510 net258
*511 net259
*512 net26
*513 net260
*514 net261
*515 net262
*516 net263
*517 net264
*518 net265
*519 net266
*520 net267
*521 net268
*522 net269
*523 net27
*524 net270
*525 net271
*526 net272
*527 net273
*528 net274
*529 net275
*530 net276
*531 net277
*532 net278
*533 net279
*534 net28
*535 net280
*536 net281
*537 net282
*538 net283
*539 net284
*540 net285
*541 net286
*542 net287
*543 net288
*544 net289
*545 net29
*546 net290
*547 net291
*548 net292
*549 net293
*550 net294
*551 net295
*552 net296
*553 net297
*554 net298
*555 net299
*556 net3
*557 net30
*558 net300
*559 net301
*560 net302
*561 net303
*562 net304
*563 net305
*564 net306
*565 net307
*566 net308
*567 net309
*568 net31
*569 net310
*570 net311
*571 net312
*572 net313
*573 net314
*574 net315
*575 net316
*576 net317
*577 net318
*578 net319
*579 net32
*580 net320
*581 net321
*582 net322
*583 net323
*584 net324
*585 net325
*586 net326
*587 net327
*588 net328
*589 net329
*590 net33
*591 net330
*592 net331
*593 net332
*594 net333
*595 net334
*596 net335
*597 net336
*598 net337
*599 net338
*600 net339
*601 net34
*602 net340
*603 net341
*604 net342
*605 net343
*606 net344
*607 net345
*608 net346
*609 net347
*610 net348
*611 net349
*612 net35
*613 net350
*614 net351
*615 net352
*616 net353
*617 net354
*618 net355
*619 net356
*620 net357
*621 net358
*622 net359
*623 net36
*624 net360
*625 net361
*626 net362
*627 net363
*628 net364
*629 net365
*630 net366
*631 net367
*632 net368
*633 net369
*634 net37
*635 net370
*636 net371
*637 net372
*638 net373
*639 net374
*640 net375
*641 net376
*642 net377
*643 net378
*644 net379
*645 net38
*646 net380
*647 net381
*648 net382
*649 net383
*650 net384
*651 net385
*652 net386
*653 net387
*654 net388
*655 net389
*656 net39
*657 net390
*658 net391
*659 net392
*660 net393
*661 net394
*662 net395
*663 net396
*664 net397
*665 net398
*666 net399
*667 net4
*668 net40
*669 net400
*670 net401
*671 net402
*672 net403
*673 net404
*674 net405
*675 net406
*676 net407
*677 net408
*678 net409
*679 net41
*680 net410
*681 net411
*682 net412
*683 net413
*684 net414
*685 net415
*686 net416
*687 net417
*688 net418
*689 net419
*690 net42
*691 net420
*692 net421
*693 net422
*694 net423
*695 net424
*696 net425
*697 net426
*698 net427
*699 net428
*700 net429
*701 net43
*702 net430
*703 net431
*704 net432
*705 net433
*706 net434
*707 net435
*708 net436
*709 net437
*710 net438
*711 net439
*712 net44
*713 net440
*714 net441
*715 net442
*716 net443
*717 net444
*718 net445
*719 net446
*720 net447
*721 net448
*722 net449
*723 net45
*724 net450
*725 net451
*726 net452
*727 net453
*728 net454
*729 net455
*730 net456
*731 net457
*732 net458
*733 net459
*734 net46
*735 net460
*736 net461
*737 net462
*738 net463
*739 net464
*740 net465
*741 net466
*742 net467
*743 net468
*744 net469
*745 net47
*746 net470
*747 net471
*748 net472
*749 net473
*750 net474
*751 net475
*752 net476
*753 net477
*754 net478
*755 net479
*756 net48
*757 net480
*758 net481
*759 net482
*760 net483
*761 net484
*762 net485
*763 net486
*764 net487
*765 net488
*766 net489
*767 net49
*768 net490
*769 net491
*770 net492
*771 net493
*772 net494
*773 net495
*774 net496
*775 net497
*776 net498
*777 net499
*778 net5
*779 net50
*780 net500
*781 net501
*782 net502
*783 net503
*784 net504
*785 net505
*786 net506
*787 net507
*788 net508
*789 net509
*790 net51
*791 net510
*792 net511
*793 net512
*794 net513
*795 net514
*796 net515
*797 net516
*798 net517
*799 net518
*800 net519
*801 net52
*802 net520
*803 net521
*804 net522
*805 net523
*806 net524
*807 net525
*808 net526
*809 net527
*810 net528
*811 net529
*812 net53
*813 net530
*814 net531
*815 net532
*816 net533
*817 net534
*818 net535
*819 net536
*820 net537
*821 net538
*822 net539
*823 net54
*824 net540
*825 net541
*826 net542
*827 net543
*828 net544
*829 net545
*830 net546
*831 net547
*832 net548
*833 net549
*834 net55
*835 net550
*836 net551
*837 net552
*838 net553
*839 net554
*840 net555
*841 net556
*842 net557
*843 net558
*844 net559
*845 net56
*846 net560
*847 net561
*848 net562
*849 net563
*850 net564
*851 net565
*852 net566
*853 net567
*854 net568
*855 net569
*856 net57
*857 net570
*858 net571
*859 net572
*860 net573
*861 net574
*862 net575
*863 net576
*864 net577
*865 net578
*866 net579
*867 net58
*868 net580
*869 net581
*870 net582
*871 net583
*872 net584
*873 net585
*874 net586
*875 net587
*876 net588
*877 net589
*878 net59
*879 net590
*880 net591
*881 net592
*882 net593
*883 net594
*884 net595
*885 net596
*886 net597
*887 net598
*888 net599
*889 net6
*890 net60
*891 net600
*892 net601
*893 net602
*894 net603
*895 net604
*896 net605
*897 net606
*898 net607
*899 net608
*900 net609
*901 net61
*902 net610
*903 net611
*904 net612
*905 net613
*906 net614
*907 net615
*908 net616
*909 net617
*910 net618
*911 net619
*912 net62
*913 net620
*914 net621
*915 net622
*916 net623
*917 net624
*918 net625
*919 net626
*920 net627
*921 net628
*922 net629
*923 net63
*924 net630
*925 net631
*926 net632
*927 net633
*928 net634
*929 net635
*930 net636
*931 net637
*932 net638
*933 net639
*934 net64
*935 net640
*936 net641
*937 net642
*938 net643
*939 net644
*940 net645
*941 net646
*942 net647
*943 net648
*944 net649
*945 net65
*946 net650
*947 net651
*948 net652
*949 net653
*950 net654
*951 net655
*952 net656
*953 net657
*954 net658
*955 net659
*956 net66
*957 net660
*958 net661
*959 net662
*960 net663
*961 net664
*962 net665
*963 net666
*964 net667
*965 net668
*966 net669
*967 net67
*968 net670
*969 net671
*970 net672
*971 net673
*972 net674
*973 net675
*974 net676
*975 net677
*976 net678
*977 net679
*978 net68
*979 net680
*980 net681
*981 net682
*982 net683
*983 net684
*984 net685
*985 net686
*986 net687
*987 net688
*988 net689
*989 net69
*990 net690
*991 net691
*992 net692
*993 net693
*994 net694
*995 net695
*996 net696
*997 net697
*998 net698
*999 net699
*1000 net7
*1001 net70
*1002 net700
*1003 net701
*1004 net702
*1005 net703
*1006 net704
*1007 net705
*1008 net706
*1009 net707
*1010 net708
*1011 net709
*1012 net71
*1013 net710
*1014 net711
*1015 net712
*1016 net713
*1017 net714
*1018 net715
*1019 net716
*1020 net717
*1021 net718
*1022 net719
*1023 net72
*1024 net720
*1025 net721
*1026 net722
*1027 net723
*1028 net724
*1029 net725
*1030 net726
*1031 net727
*1032 net728
*1033 net729
*1034 net73
*1035 net730
*1036 net731
*1037 net732
*1038 net733
*1039 net734
*1040 net735
*1041 net736
*1042 net737
*1043 net738
*1044 net739
*1045 net74
*1046 net740
*1047 net741
*1048 net742
*1049 net743
*1050 net744
*1051 net745
*1052 net746
*1053 net747
*1054 net748
*1055 net749
*1056 net75
*1057 net750
*1058 net751
*1059 net752
*1060 net753
*1061 net754
*1062 net755
*1063 net756
*1064 net757
*1065 net758
*1066 net759
*1067 net76
*1068 net760
*1069 net761
*1070 net762
*1071 net763
*1072 net764
*1073 net765
*1074 net766
*1075 net767
*1076 net768
*1077 net769
*1078 net77
*1079 net770
*1080 net771
*1081 net772
*1082 net773
*1083 net774
*1084 net775
*1085 net776
*1086 net777
*1087 net778
*1088 net779
*1089 net78
*1090 net780
*1091 net781
*1092 net782
*1093 net783
*1094 net784
*1095 net785
*1096 net786
*1097 net787
*1098 net788
*1099 net789
*1100 net79
*1101 net790
*1102 net791
*1103 net792
*1104 net793
*1105 net794
*1106 net795
*1107 net796
*1108 net797
*1109 net798
*1110 net799
*1111 net8
*1112 net80
*1113 net800
*1114 net801
*1115 net802
*1116 net803
*1117 net804
*1118 net805
*1119 net806
*1120 net807
*1121 net808
*1122 net809
*1123 net81
*1124 net810
*1125 net811
*1126 net812
*1127 net813
*1128 net814
*1129 net815
*1130 net816
*1131 net817
*1132 net818
*1133 net819
*1134 net82
*1135 net820
*1136 net821
*1137 net822
*1138 net823
*1139 net824
*1140 net825
*1141 net826
*1142 net827
*1143 net828
*1144 net829
*1145 net83
*1146 net830
*1147 net831
*1148 net832
*1149 net833
*1150 net834
*1151 net835
*1152 net836
*1153 net837
*1154 net838
*1155 net839
*1156 net84
*1157 net840
*1158 net841
*1159 net842
*1160 net843
*1161 net844
*1162 net845
*1163 net846
*1164 net847
*1165 net848
*1166 net849
*1167 net85
*1168 net850
*1169 net851
*1170 net852
*1171 net853
*1172 net854
*1173 net855
*1174 net856
*1175 net857
*1176 net858
*1177 net859
*1178 net86
*1179 net860
*1180 net861
*1181 net862
*1182 net863
*1183 net864
*1184 net865
*1185 net866
*1186 net867
*1187 net868
*1188 net869
*1189 net87
*1190 net870
*1191 net871
*1192 net872
*1193 net873
*1194 net874
*1195 net875
*1196 net876
*1197 net877
*1198 net878
*1199 net879
*1200 net88
*1201 net880
*1202 net881
*1203 net882
*1204 net883
*1205 net884
*1206 net885
*1207 net886
*1208 net887
*1209 net888
*1210 net889
*1211 net89
*1212 net890
*1213 net891
*1214 net892
*1215 net893
*1216 net894
*1217 net895
*1218 net896
*1219 net897
*1220 net898
*1221 net899
*1222 net9
*1223 net90
*1224 net900
*1225 net901
*1226 net902
*1227 net903
*1228 net904
*1229 net905
*1230 net906
*1231 net907
*1232 net908
*1233 net909
*1234 net91
*1235 net910
*1236 net911
*1237 net912
*1238 net913
*1239 net914
*1240 net915
*1241 net916
*1242 net917
*1243 net918
*1244 net919
*1245 net92
*1246 net920
*1247 net921
*1248 net922
*1249 net923
*1250 net924
*1251 net925
*1252 net926
*1253 net927
*1254 net928
*1255 net929
*1256 net93
*1257 net930
*1258 net931
*1259 net932
*1260 net933
*1261 net934
*1262 net935
*1263 net936
*1264 net937
*1265 net938
*1266 net939
*1267 net94
*1268 net940
*1269 net941
*1270 net942
*1271 net943
*1272 net944
*1273 net945
*1274 net946
*1275 net947
*1276 net948
*1277 net949
*1278 net95
*1279 net950
*1280 net951
*1281 net952
*1282 net953
*1283 net954
*1284 net955
*1285 net956
*1286 net957
*1287 net958
*1288 net959
*1289 net96
*1290 net960
*1291 net961
*1292 net962
*1293 net963
*1294 net964
*1295 net965
*1296 net966
*1297 net967
*1298 net968
*1299 net969
*1300 net97
*1301 net970
*1302 net971
*1303 net972
*1304 net973
*1305 net974
*1306 net975
*1307 net976
*1308 net977
*1309 net978
*1310 net979
*1311 net98
*1312 net980
*1313 net981
*1314 net982
*1315 net983
*1316 net984
*1317 net985
*1318 net986
*1319 net987
*1320 net988
*1321 net989
*1322 net99
*1323 net990
*1324 net991
*1325 net992
*1326 net993
*1327 net994
*1328 net995
*1329 net996
*1330 net997
*1331 net998
*1332 net999
*1333 ANTENNA_c100_A
*1334 ANTENNA_c100_Y
*1335 ANTENNA_c104_X
*1336 ANTENNA_c105_X
*1337 ANTENNA_c106_A2
*1338 ANTENNA_c108_A2
*1339 ANTENNA_c108_X
*1340 ANTENNA_c109_A3
*1341 ANTENNA_c109_S1
*1342 ANTENNA_c111_A
*1343 ANTENNA_c111_B
*1344 ANTENNA_c113_A
*1345 ANTENNA_c114_A
*1346 ANTENNA_c115_A
*1347 ANTENNA_c115_B
*1348 ANTENNA_c116_A1
*1349 ANTENNA_c116_A2
*1350 ANTENNA_c118_B
*1351 ANTENNA_c120_Y
*1352 ANTENNA_c121_A
*1353 ANTENNA_c122_X
*1354 ANTENNA_c123_Y
*1355 ANTENNA_c125_A0
*1356 ANTENNA_c125_A2
*1357 ANTENNA_c125_A3
*1358 ANTENNA_c125_S1
*1359 ANTENNA_c126_X
*1360 ANTENNA_c127_A3
*1361 ANTENNA_c129_B
*1362 ANTENNA_c130_A2
*1363 ANTENNA_c131_A3
*1364 ANTENNA_c131_S1
*1365 ANTENNA_c132_A
*1366 ANTENNA_c132_B
*1367 ANTENNA_c133_A
*1368 ANTENNA_c133_B
*1369 ANTENNA_c133_Y
*1370 ANTENNA_c134_A
*1371 ANTENNA_c134_B
*1372 ANTENNA_c135_B
*1373 ANTENNA_c136_A1
*1374 ANTENNA_c136_A2
*1375 ANTENNA_c136_B1_N
*1376 ANTENNA_c138_A
*1377 ANTENNA_c139_B
*1378 ANTENNA_c139_Y
*1379 ANTENNA_c140_A
*1380 ANTENNA_c141_A
*1381 ANTENNA_c141_Y
*1382 ANTENNA_c142_B1
*1383 ANTENNA_c142_X
*1384 ANTENNA_c143_B1_N
*1385 ANTENNA_c144_A2
*1386 ANTENNA_c144_X
*1387 ANTENNA_c145_A
*1388 ANTENNA_c145_Y
*1389 ANTENNA_c146_A2
*1390 ANTENNA_c146_X
*1391 ANTENNA_c147_A3
*1392 ANTENNA_c148_A1
*1393 ANTENNA_c148_A2
*1394 ANTENNA_c148_X
*1395 ANTENNA_c149_B1_N
*1396 ANTENNA_c149_X
*1397 ANTENNA_c150_A
*1398 ANTENNA_c150_Y
*1399 ANTENNA_c151_A1
*1400 ANTENNA_c151_A2
*1401 ANTENNA_c151_B1_N
*1402 ANTENNA_c152_A0
*1403 ANTENNA_c152_A3
*1404 ANTENNA_c152_S1
*1405 ANTENNA_c152_X
*1406 ANTENNA_c153_A1
*1407 ANTENNA_c153_S0
*1408 ANTENNA_c153_S1
*1409 ANTENNA_c153_X
*1410 ANTENNA_c154_A
*1411 ANTENNA_c154_B
*1412 ANTENNA_c154_Y
*1413 ANTENNA_c155_A1
*1414 ANTENNA_c155_A2
*1415 ANTENNA_c155_X
*1416 ANTENNA_c156_A
*1417 ANTENNA_c157_A
*1418 ANTENNA_c158_A1
*1419 ANTENNA_c158_A3
*1420 ANTENNA_c158_B1
*1421 ANTENNA_c159_Y
*1422 ANTENNA_c160_A
*1423 ANTENNA_c160_B
*1424 ANTENNA_c160_Y
*1425 ANTENNA_c161_A1
*1426 ANTENNA_c161_A2
*1427 ANTENNA_c161_B1
*1428 ANTENNA_c163_B
*1429 ANTENNA_c164_A1
*1430 ANTENNA_c165_A2
*1431 ANTENNA_c165_A3
*1432 ANTENNA_c165_B1
*1433 ANTENNA_c166_A2
*1434 ANTENNA_c166_A3
*1435 ANTENNA_c166_A4
*1436 ANTENNA_c167_B1
*1437 ANTENNA_c168_B1_N
*1438 ANTENNA_c169_A
*1439 ANTENNA_c170_A3
*1440 ANTENNA_c170_X
*1441 ANTENNA_c171_A2
*1442 ANTENNA_c171_B1
*1443 ANTENNA_c172_A3
*1444 ANTENNA_c172_B1
*1445 ANTENNA_c173_A2
*1446 ANTENNA_c173_A4
*1447 ANTENNA_c173_X
*1448 ANTENNA_c175_B
*1449 ANTENNA_c175_Y
*1450 ANTENNA_c176_B
*1451 ANTENNA_c179_A
*1452 ANTENNA_c181_B1_N
*1453 ANTENNA_c181_X
*1454 ANTENNA_c185_A
*1455 ANTENNA_c185_B
*1456 ANTENNA_c185_Y
*1457 ANTENNA_c186_B
*1458 ANTENNA_c186_Y
*1459 ANTENNA_c187_A0
*1460 ANTENNA_c187_A2
*1461 ANTENNA_c187_S0
*1462 ANTENNA_c188_S1
*1463 ANTENNA_c189_A1
*1464 ANTENNA_c189_A2
*1465 ANTENNA_c190_A2
*1466 ANTENNA_c190_A4
*1467 ANTENNA_c190_X
*1468 ANTENNA_c191_B1
*1469 ANTENNA_c192_A2
*1470 ANTENNA_c193_B1
*1471 ANTENNA_c195_A0
*1472 ANTENNA_c195_A2
*1473 ANTENNA_c195_S0
*1474 ANTENNA_c196_A0
*1475 ANTENNA_c196_S1
*1476 ANTENNA_c197_A1
*1477 ANTENNA_c197_A2
*1478 ANTENNA_c197_A3
*1479 ANTENNA_c198_B
*1480 ANTENNA_c199_B
*1481 ANTENNA_c199_Y
*1482 ANTENNA_c200_A
*1483 ANTENNA_c200_Y
*1484 ANTENNA_c201_A1
*1485 ANTENNA_c201_A2
*1486 ANTENNA_c202_A2
*1487 ANTENNA_c202_X
*1488 ANTENNA_c205_CLK
*1489 ANTENNA_c205_D
*1490 ANTENNA_c205_SCE
*1491 ANTENNA_c207_Y
*1492 ANTENNA_c208_A2
*1493 ANTENNA_c208_B1_N
*1494 ANTENNA_c209_A2
*1495 ANTENNA_c209_B1_N
*1496 ANTENNA_c209_X
*1497 ANTENNA_c210_A1
*1498 ANTENNA_c210_B1_N
*1499 ANTENNA_c211_Y
*1500 ANTENNA_c213_A
*1501 ANTENNA_c215_A3
*1502 ANTENNA_c215_B1
*1503 ANTENNA_c215_X
*1504 ANTENNA_c216_A1
*1505 ANTENNA_c216_A3
*1506 ANTENNA_c216_A4
*1507 ANTENNA_c217_A0
*1508 ANTENNA_c217_A3
*1509 ANTENNA_c217_S0
*1510 ANTENNA_c218_A2
*1511 ANTENNA_c218_B1_N
*1512 ANTENNA_c218_X
*1513 ANTENNA_c219_A2
*1514 ANTENNA_c219_S0
*1515 ANTENNA_c219_S1
*1516 ANTENNA_c220_B
*1517 ANTENNA_c221_A
*1518 ANTENNA_c222_A3
*1519 ANTENNA_c224_CLK_N
*1520 ANTENNA_c224_RESET_B
*1521 ANTENNA_c224_SCE
*1522 ANTENNA_c224_SET_B
*1523 ANTENNA_c227_A1
*1524 ANTENNA_c227_A2
*1525 ANTENNA_c227_X
*1526 ANTENNA_c228_A2
*1527 ANTENNA_c230_A2
*1528 ANTENNA_c230_A3
*1529 ANTENNA_c231_CLK_N
*1530 ANTENNA_c231_RESET_B
*1531 ANTENNA_c231_SCE
*1532 ANTENNA_c232_A0
*1533 ANTENNA_c232_A3
*1534 ANTENNA_c232_S0
*1535 ANTENNA_c233_A
*1536 ANTENNA_c235_B
*1537 ANTENNA_c237_A0
*1538 ANTENNA_c237_A1
*1539 ANTENNA_c237_A2
*1540 ANTENNA_c237_S0
*1541 ANTENNA_c237_S1
*1542 ANTENNA_c237_X
*1543 ANTENNA_c239_A3
*1544 ANTENNA_c239_A4
*1545 ANTENNA_c240_A4
*1546 ANTENNA_c241_S0
*1547 ANTENNA_c242_A2
*1548 ANTENNA_c242_X
*1549 ANTENNA_c243_A0
*1550 ANTENNA_c243_A2
*1551 ANTENNA_c243_S0
*1552 ANTENNA_c243_S1
*1553 ANTENNA_c246_A2
*1554 ANTENNA_c246_A3
*1555 ANTENNA_c246_B1
*1556 ANTENNA_c247_A1
*1557 ANTENNA_c247_A2
*1558 ANTENNA_c247_A3
*1559 ANTENNA_c249_A1
*1560 ANTENNA_c249_A3
*1561 ANTENNA_c249_S1
*1562 ANTENNA_c251_X
*1563 ANTENNA_c253_RESET_B
*1564 ANTENNA_c253_SCD
*1565 ANTENNA_c253_SCE
*1566 ANTENNA_c254_A2
*1567 ANTENNA_c254_A3
*1568 ANTENNA_c254_B1
*1569 ANTENNA_c255_SCD
*1570 ANTENNA_c255_SCE
*1571 ANTENNA_c256_D
*1572 ANTENNA_c256_SCE
*1573 ANTENNA_c256_SET_B
*1574 ANTENNA_c257_S1
*1575 ANTENNA_c258_A2
*1576 ANTENNA_c258_A3
*1577 ANTENNA_c259_D
*1578 ANTENNA_c259_RESET_B
*1579 ANTENNA_c259_SCD
*1580 ANTENNA_c259_SCE
*1581 ANTENNA_c259_SET_B
*1582 ANTENNA_c25_B
*1583 ANTENNA_c262_A3
*1584 ANTENNA_c262_A4
*1585 ANTENNA_c263_A3
*1586 ANTENNA_c263_S1
*1587 ANTENNA_c264_B
*1588 ANTENNA_c266_Y
*1589 ANTENNA_c267_A
*1590 ANTENNA_c267_B
*1591 ANTENNA_c267_Y
*1592 ANTENNA_c268_A
*1593 ANTENNA_c268_B
*1594 ANTENNA_c26_B
*1595 ANTENNA_c270_B
*1596 ANTENNA_c271_A
*1597 ANTENNA_c272_A
*1598 ANTENNA_c272_B
*1599 ANTENNA_c275_B
*1600 ANTENNA_c276_A1
*1601 ANTENNA_c278_X
*1602 ANTENNA_c279_A2
*1603 ANTENNA_c27_A
*1604 ANTENNA_c280_A2
*1605 ANTENNA_c281_A3
*1606 ANTENNA_c281_S1
*1607 ANTENNA_c281_X
*1608 ANTENNA_c282_A3
*1609 ANTENNA_c282_B1
*1610 ANTENNA_c283_S0
*1611 ANTENNA_c284_B1_N
*1612 ANTENNA_c285_A1
*1613 ANTENNA_c285_S1
*1614 ANTENNA_c286_A
*1615 ANTENNA_c287_B
*1616 ANTENNA_c287_Y
*1617 ANTENNA_c288_A2
*1618 ANTENNA_c288_A3
*1619 ANTENNA_c288_B1
*1620 ANTENNA_c28_A
*1621 ANTENNA_c290_B1_N
*1622 ANTENNA_c291_A1
*1623 ANTENNA_c291_B1_N
*1624 ANTENNA_c291_X
*1625 ANTENNA_c293_A1
*1626 ANTENNA_c293_B1_N
*1627 ANTENNA_c293_X
*1628 ANTENNA_c294_Y
*1629 ANTENNA_c295_A1
*1630 ANTENNA_c295_B1_N
*1631 ANTENNA_c296_A1
*1632 ANTENNA_c296_A3
*1633 ANTENNA_c296_B1
*1634 ANTENNA_c297_A3
*1635 ANTENNA_c297_B1
*1636 ANTENNA_c298_A
*1637 ANTENNA_c298_X
*1638 ANTENNA_c299_A
*1639 ANTENNA_c29_B
*1640 ANTENNA_c300_A3
*1641 ANTENNA_c300_A4
*1642 ANTENNA_c300_B1
*1643 ANTENNA_c303_A3
*1644 ANTENNA_c303_A4
*1645 ANTENNA_c303_B1
*1646 ANTENNA_c304_RESET_B
*1647 ANTENNA_c304_SCE
*1648 ANTENNA_c305_S1
*1649 ANTENNA_c305_X
*1650 ANTENNA_c307_A3
*1651 ANTENNA_c307_S1
*1652 ANTENNA_c308_A1
*1653 ANTENNA_c308_A2
*1654 ANTENNA_c308_B1_N
*1655 ANTENNA_c308_X
*1656 ANTENNA_c30_B
*1657 ANTENNA_c30_Y
*1658 ANTENNA_c310_A1
*1659 ANTENNA_c310_A2
*1660 ANTENNA_c310_B1_N
*1661 ANTENNA_c310_X
*1662 ANTENNA_c311_X
*1663 ANTENNA_c312_A1
*1664 ANTENNA_c312_A4
*1665 ANTENNA_c312_X
*1666 ANTENNA_c314_A2
*1667 ANTENNA_c314_A3
*1668 ANTENNA_c314_B1
*1669 ANTENNA_c314_X
*1670 ANTENNA_c315_A2
*1671 ANTENNA_c315_B1_N
*1672 ANTENNA_c315_X
*1673 ANTENNA_c316_B1_N
*1674 ANTENNA_c317_A2
*1675 ANTENNA_c319_A1
*1676 ANTENNA_c319_S0
*1677 ANTENNA_c320_A2
*1678 ANTENNA_c321_A1
*1679 ANTENNA_c322_A1
*1680 ANTENNA_c322_S1
*1681 ANTENNA_c323_A
*1682 ANTENNA_c324_A1
*1683 ANTENNA_c324_A3
*1684 ANTENNA_c325_B1_N
*1685 ANTENNA_c326_S0
*1686 ANTENNA_c326_S1
*1687 ANTENNA_c327_A1
*1688 ANTENNA_c327_A3
*1689 ANTENNA_c327_S0
*1690 ANTENNA_c327_S1
*1691 ANTENNA_c328_A2
*1692 ANTENNA_c329_A0
*1693 ANTENNA_c329_S0
*1694 ANTENNA_c32_B
*1695 ANTENNA_c330_B
*1696 ANTENNA_c330_Y
*1697 ANTENNA_c331_A1
*1698 ANTENNA_c331_A2
*1699 ANTENNA_c331_A3
*1700 ANTENNA_c331_A4
*1701 ANTENNA_c333_A
*1702 ANTENNA_c333_Y
*1703 ANTENNA_c335_A2
*1704 ANTENNA_c337_CLK_N
*1705 ANTENNA_c337_RESET_B
*1706 ANTENNA_c337_SCD
*1707 ANTENNA_c337_SCE
*1708 ANTENNA_c338_A
*1709 ANTENNA_c339_A2
*1710 ANTENNA_c33_Y
*1711 ANTENNA_c340_B1_N
*1712 ANTENNA_c341_A3
*1713 ANTENNA_c341_S0
*1714 ANTENNA_c341_S1
*1715 ANTENNA_c342_A1
*1716 ANTENNA_c342_S1
*1717 ANTENNA_c343_A
*1718 ANTENNA_c343_B
*1719 ANTENNA_c346_S0
*1720 ANTENNA_c348_A2
*1721 ANTENNA_c348_B1_N
*1722 ANTENNA_c349_Y
*1723 ANTENNA_c350_B1
*1724 ANTENNA_c351_A0
*1725 ANTENNA_c351_A3
*1726 ANTENNA_c351_S1
*1727 ANTENNA_c353_A
*1728 ANTENNA_c355_B
*1729 ANTENNA_c356_B
*1730 ANTENNA_c357_B
*1731 ANTENNA_c35_A
*1732 ANTENNA_c360_A1
*1733 ANTENNA_c360_A2
*1734 ANTENNA_c365_A0
*1735 ANTENNA_c365_A2
*1736 ANTENNA_c365_A3
*1737 ANTENNA_c368_A3
*1738 ANTENNA_c370_S0
*1739 ANTENNA_c371_CLK
*1740 ANTENNA_c371_D
*1741 ANTENNA_c371_SCE
*1742 ANTENNA_c374_A3
*1743 ANTENNA_c374_S0
*1744 ANTENNA_c374_S1
*1745 ANTENNA_c375_CLK
*1746 ANTENNA_c375_SCD
*1747 ANTENNA_c376_B1
*1748 ANTENNA_c377_CLK
*1749 ANTENNA_c377_SCD
*1750 ANTENNA_c377_SCE
*1751 ANTENNA_c377_SET_B
*1752 ANTENNA_c378_A1
*1753 ANTENNA_c378_A3
*1754 ANTENNA_c379_A2
*1755 ANTENNA_c37_A
*1756 ANTENNA_c380_A0
*1757 ANTENNA_c380_A1
*1758 ANTENNA_c380_S0
*1759 ANTENNA_c381_CLK
*1760 ANTENNA_c381_SCD
*1761 ANTENNA_c382_A0
*1762 ANTENNA_c382_A2
*1763 ANTENNA_c382_A3
*1764 ANTENNA_c383_B1
*1765 ANTENNA_c384_A1
*1766 ANTENNA_c384_A3
*1767 ANTENNA_c384_S1
*1768 ANTENNA_c385_A1
*1769 ANTENNA_c385_A3
*1770 ANTENNA_c385_A4
*1771 ANTENNA_c386_CLK
*1772 ANTENNA_c386_D
*1773 ANTENNA_c386_Q
*1774 ANTENNA_c387_A2
*1775 ANTENNA_c387_A3
*1776 ANTENNA_c388_A3
*1777 ANTENNA_c388_S1
*1778 ANTENNA_c389_A1
*1779 ANTENNA_c389_A3
*1780 ANTENNA_c38_A1
*1781 ANTENNA_c38_S0
*1782 ANTENNA_c38_S1
*1783 ANTENNA_c38_X
*1784 ANTENNA_c390_CLK_N
*1785 ANTENNA_c390_RESET_B
*1786 ANTENNA_c391_A1
*1787 ANTENNA_c391_A4
*1788 ANTENNA_c391_B1
*1789 ANTENNA_c392_CLK_N
*1790 ANTENNA_c394_CLK
*1791 ANTENNA_c396_A
*1792 ANTENNA_c396_B
*1793 ANTENNA_c396_Y
*1794 ANTENNA_c398_A
*1795 ANTENNA_c398_B
*1796 ANTENNA_c39_A3
*1797 ANTENNA_c39_B1
*1798 ANTENNA_c39_X
*1799 ANTENNA_c403_B
*1800 ANTENNA_c403_Y
*1801 ANTENNA_c404_X
*1802 ANTENNA_c406_B
*1803 ANTENNA_c407_B
*1804 ANTENNA_c408_Y
*1805 ANTENNA_c40_A4
*1806 ANTENNA_c410_X
*1807 ANTENNA_c411_X
*1808 ANTENNA_c412_Y
*1809 ANTENNA_c414_A2
*1810 ANTENNA_c414_B1_N
*1811 ANTENNA_c415_A
*1812 ANTENNA_c415_X
*1813 ANTENNA_c416_X
*1814 ANTENNA_c417_A3
*1815 ANTENNA_c417_S0
*1816 ANTENNA_c417_S1
*1817 ANTENNA_c418_B
*1818 ANTENNA_c419_B
*1819 ANTENNA_c41_A1
*1820 ANTENNA_c41_A2
*1821 ANTENNA_c41_X
*1822 ANTENNA_c420_B
*1823 ANTENNA_c421_B
*1824 ANTENNA_c423_A1
*1825 ANTENNA_c423_A2
*1826 ANTENNA_c424_A1
*1827 ANTENNA_c425_B1_N
*1828 ANTENNA_c426_B1_N
*1829 ANTENNA_c426_X
*1830 ANTENNA_c428_A2
*1831 ANTENNA_c428_B1_N
*1832 ANTENNA_c42_A1
*1833 ANTENNA_c42_A2
*1834 ANTENNA_c42_A3
*1835 ANTENNA_c42_S0
*1836 ANTENNA_c432_CLK
*1837 ANTENNA_c432_SCD
*1838 ANTENNA_c432_SCE
*1839 ANTENNA_c432_SET_B
*1840 ANTENNA_c433_A1