*SPEF "ieee 1481-1999"
*DESIGN "netlist_0"
*DATE "13:44:09 Saturday August 17, 2024"
*VENDOR "The OpenROAD Project"
*PROGRAM "OpenROAD"
*VERSION "d423155d69de7f683a23f6916ead418a615ad4ad"
*DESIGN_FLOW "NAME_SCOPE LOCAL" "PIN_CAP NONE"
*DIVIDER /
*DELIMITER :
*BUS_DELIMITER []
*T_UNIT 1 NS
*C_UNIT 1 PF
*R_UNIT 1 OHM
*L_UNIT 1 HENRY

*NAME_MAP
*3 clk
*4 in0
*5 in1
*6 in10
*7 in11
*8 in12
*9 in13
*10 in14
*11 in15
*12 in16
*13 in17
*14 in18
*15 in19
*16 in2
*17 in20
*18 in21
*19 in22
*20 in23
*21 in24
*22 in3
*23 in4
*24 in5
*25 in6
*26 in7
*27 in8
*28 in9
*29 out0
*30 out1
*31 out10
*32 out11
*33 out12
*34 out13
*35 out14
*36 out15
*37 out16
*38 out17
*39 out18
*40 out19
*41 out2
*42 out20
*43 out21
*44 out22
*45 out23
*46 out24
*47 out3
*48 out4
*49 out5
*50 out6
*51 out7
*52 out8
*53 out9
*54 rst
*55 clknet_0_clk
*56 clknet_0_net1007
*57 clknet_0_net1026
*58 clknet_0_net1027
*59 clknet_0_net1028
*60 clknet_0_net1055
*61 clknet_0_net1057
*62 clknet_0_net137
*63 clknet_0_net138
*64 clknet_0_net139
*65 clknet_0_net141
*66 clknet_0_net159
*67 clknet_0_net160
*68 clknet_0_net161
*69 clknet_0_net167
*70 clknet_0_net262
*71 clknet_0_net313
*72 clknet_0_net376
*73 clknet_0_net377
*74 clknet_0_net379
*75 clknet_0_net450
*76 clknet_0_net451
*77 clknet_0_net454
*78 clknet_0_net462
*79 clknet_0_net48
*80 clknet_0_net518
*81 clknet_0_net520
*82 clknet_0_net523
*83 clknet_0_net526
*84 clknet_0_net533
*85 clknet_0_net536
*86 clknet_0_net538
*87 clknet_0_net539
*88 clknet_0_net540
*89 clknet_0_net541
*90 clknet_0_net543
*91 clknet_0_net544
*92 clknet_0_net545
*93 clknet_0_net549
*94 clknet_0_net550
*95 clknet_0_net553
*96 clknet_0_net556
*97 clknet_0_net560
*98 clknet_0_net60
*99 clknet_0_net609
*100 clknet_0_net610
*101 clknet_0_net611
*102 clknet_0_net613
*103 clknet_0_net615
*104 clknet_0_net622
*105 clknet_0_net626
*106 clknet_0_net628
*107 clknet_0_net633
*108 clknet_0_net639
*109 clknet_0_net67
*110 clknet_0_net68
*111 clknet_0_net69
*112 clknet_0_net70
*113 clknet_0_net700
*114 clknet_0_net701
*115 clknet_0_net702
*116 clknet_0_net705
*117 clknet_0_net720
*118 clknet_0_net722
*119 clknet_0_net723
*120 clknet_0_net725
*121 clknet_0_net727
*122 clknet_0_net728
*123 clknet_0_net729
*124 clknet_0_net747
*125 clknet_0_net75
*126 clknet_0_net755
*127 clknet_0_net756
*128 clknet_0_net759
*129 clknet_0_net768
*130 clknet_0_net805
*131 clknet_0_net871
*132 clknet_0_net872
*133 clknet_0_net873
*134 clknet_0_net890
*135 clknet_0_net909
*136 clknet_0_net910
*137 clknet_0_net911
*138 clknet_0_net929
*139 clknet_0_net930
*140 clknet_0_net931
*141 clknet_0_net948
*142 clknet_0_net950
*143 clknet_0_net987
*144 clknet_1_0__leaf_net1007
*145 clknet_1_0__leaf_net1026
*146 clknet_1_0__leaf_net1027
*147 clknet_1_0__leaf_net1028
*148 clknet_1_0__leaf_net1055
*149 clknet_1_0__leaf_net1057
*150 clknet_1_0__leaf_net137
*151 clknet_1_0__leaf_net138
*152 clknet_1_0__leaf_net139
*153 clknet_1_0__leaf_net141
*154 clknet_1_0__leaf_net159
*155 clknet_1_0__leaf_net160
*156 clknet_1_0__leaf_net161
*157 clknet_1_0__leaf_net167
*158 clknet_1_0__leaf_net262
*159 clknet_1_0__leaf_net313
*160 clknet_1_0__leaf_net376
*161 clknet_1_0__leaf_net377
*162 clknet_1_0__leaf_net379
*163 clknet_1_0__leaf_net450
*164 clknet_1_0__leaf_net451
*165 clknet_1_0__leaf_net454
*166 clknet_1_0__leaf_net462
*167 clknet_1_0__leaf_net48
*168 clknet_1_0__leaf_net518
*169 clknet_1_0__leaf_net520
*170 clknet_1_0__leaf_net523
*171 clknet_1_0__leaf_net526
*172 clknet_1_0__leaf_net533
*173 clknet_1_0__leaf_net536
*174 clknet_1_0__leaf_net538
*175 clknet_1_0__leaf_net539
*176 clknet_1_0__leaf_net540
*177 clknet_1_0__leaf_net541
*178 clknet_1_0__leaf_net543
*179 clknet_1_0__leaf_net544
*180 clknet_1_0__leaf_net545
*181 clknet_1_0__leaf_net549
*182 clknet_1_0__leaf_net550
*183 clknet_1_0__leaf_net553
*184 clknet_1_0__leaf_net556
*185 clknet_1_0__leaf_net560
*186 clknet_1_0__leaf_net60
*187 clknet_1_0__leaf_net609
*188 clknet_1_0__leaf_net610
*189 clknet_1_0__leaf_net611
*190 clknet_1_0__leaf_net613
*191 clknet_1_0__leaf_net615
*192 clknet_1_0__leaf_net622
*193 clknet_1_0__leaf_net626
*194 clknet_1_0__leaf_net628
*195 clknet_1_0__leaf_net633
*196 clknet_1_0__leaf_net639
*197 clknet_1_0__leaf_net67
*198 clknet_1_0__leaf_net68
*199 clknet_1_0__leaf_net69
*200 clknet_1_0__leaf_net70
*201 clknet_1_0__leaf_net700
*202 clknet_1_0__leaf_net701
*203 clknet_1_0__leaf_net702
*204 clknet_1_0__leaf_net705
*205 clknet_1_0__leaf_net720
*206 clknet_1_0__leaf_net722
*207 clknet_1_0__leaf_net723
*208 clknet_1_0__leaf_net725
*209 clknet_1_0__leaf_net727
*210 clknet_1_0__leaf_net728
*211 clknet_1_0__leaf_net729
*212 clknet_1_0__leaf_net747
*213 clknet_1_0__leaf_net75
*214 clknet_1_0__leaf_net755
*215 clknet_1_0__leaf_net756
*216 clknet_1_0__leaf_net759
*217 clknet_1_0__leaf_net768
*218 clknet_1_0__leaf_net805
*219 clknet_1_0__leaf_net871
*220 clknet_1_0__leaf_net872
*221 clknet_1_0__leaf_net873
*222 clknet_1_0__leaf_net890
*223 clknet_1_0__leaf_net909
*224 clknet_1_0__leaf_net910
*225 clknet_1_0__leaf_net911
*226 clknet_1_0__leaf_net929
*227 clknet_1_0__leaf_net930
*228 clknet_1_0__leaf_net931
*229 clknet_1_0__leaf_net948
*230 clknet_1_0__leaf_net950
*231 clknet_1_0__leaf_net987
*232 clknet_1_1__leaf_net1007
*233 clknet_1_1__leaf_net1026
*234 clknet_1_1__leaf_net1027
*235 clknet_1_1__leaf_net1028
*236 clknet_1_1__leaf_net1055
*237 clknet_1_1__leaf_net1057
*238 clknet_1_1__leaf_net137
*239 clknet_1_1__leaf_net138
*240 clknet_1_1__leaf_net139
*241 clknet_1_1__leaf_net141
*242 clknet_1_1__leaf_net159
*243 clknet_1_1__leaf_net160
*244 clknet_1_1__leaf_net161
*245 clknet_1_1__leaf_net167
*246 clknet_1_1__leaf_net262
*247 clknet_1_1__leaf_net313
*248 clknet_1_1__leaf_net376
*249 clknet_1_1__leaf_net377
*250 clknet_1_1__leaf_net379
*251 clknet_1_1__leaf_net450
*252 clknet_1_1__leaf_net451
*253 clknet_1_1__leaf_net454
*254 clknet_1_1__leaf_net462
*255 clknet_1_1__leaf_net48
*256 clknet_1_1__leaf_net518
*257 clknet_1_1__leaf_net520
*258 clknet_1_1__leaf_net523
*259 clknet_1_1__leaf_net526
*260 clknet_1_1__leaf_net533
*261 clknet_1_1__leaf_net536
*262 clknet_1_1__leaf_net538
*263 clknet_1_1__leaf_net539
*264 clknet_1_1__leaf_net540
*265 clknet_1_1__leaf_net541
*266 clknet_1_1__leaf_net543
*267 clknet_1_1__leaf_net544
*268 clknet_1_1__leaf_net545
*269 clknet_1_1__leaf_net549
*270 clknet_1_1__leaf_net550
*271 clknet_1_1__leaf_net553
*272 clknet_1_1__leaf_net556
*273 clknet_1_1__leaf_net560
*274 clknet_1_1__leaf_net60
*275 clknet_1_1__leaf_net609
*276 clknet_1_1__leaf_net610
*277 clknet_1_1__leaf_net611
*278 clknet_1_1__leaf_net613
*279 clknet_1_1__leaf_net615
*280 clknet_1_1__leaf_net622
*281 clknet_1_1__leaf_net626
*282 clknet_1_1__leaf_net628
*283 clknet_1_1__leaf_net633
*284 clknet_1_1__leaf_net639
*285 clknet_1_1__leaf_net67
*286 clknet_1_1__leaf_net68
*287 clknet_1_1__leaf_net69
*288 clknet_1_1__leaf_net70
*289 clknet_1_1__leaf_net700
*290 clknet_1_1__leaf_net701
*291 clknet_1_1__leaf_net702
*292 clknet_1_1__leaf_net705
*293 clknet_1_1__leaf_net720
*294 clknet_1_1__leaf_net722
*295 clknet_1_1__leaf_net723
*296 clknet_1_1__leaf_net725
*297 clknet_1_1__leaf_net727
*298 clknet_1_1__leaf_net728
*299 clknet_1_1__leaf_net729
*300 clknet_1_1__leaf_net747
*301 clknet_1_1__leaf_net75
*302 clknet_1_1__leaf_net755
*303 clknet_1_1__leaf_net756
*304 clknet_1_1__leaf_net759
*305 clknet_1_1__leaf_net768
*306 clknet_1_1__leaf_net805
*307 clknet_1_1__leaf_net871
*308 clknet_1_1__leaf_net872
*309 clknet_1_1__leaf_net873
*310 clknet_1_1__leaf_net890
*311 clknet_1_1__leaf_net909
*312 clknet_1_1__leaf_net910
*313 clknet_1_1__leaf_net911
*314 clknet_1_1__leaf_net929
*315 clknet_1_1__leaf_net930
*316 clknet_1_1__leaf_net931
*317 clknet_1_1__leaf_net948
*318 clknet_1_1__leaf_net950
*319 clknet_1_1__leaf_net987
*320 clknet_2_0__leaf_clk
*321 clknet_2_1__leaf_clk
*322 clknet_2_2__leaf_clk
*323 clknet_2_3__leaf_clk
*324 clknet_leaf_0_clk
*325 clknet_leaf_10_clk
*326 clknet_leaf_11_clk
*327 clknet_leaf_12_clk
*328 clknet_leaf_13_clk
*329 clknet_leaf_14_clk
*330 clknet_leaf_15_clk
*331 clknet_leaf_16_clk
*332 clknet_leaf_17_clk
*333 clknet_leaf_18_clk
*334 clknet_leaf_19_clk
*335 clknet_leaf_1_clk
*336 clknet_leaf_20_clk
*337 clknet_leaf_21_clk
*338 clknet_leaf_22_clk
*339 clknet_leaf_23_clk
*340 clknet_leaf_24_clk
*341 clknet_leaf_25_clk
*342 clknet_leaf_26_clk
*343 clknet_leaf_27_clk
*344 clknet_leaf_28_clk
*345 clknet_leaf_29_clk
*346 clknet_leaf_2_clk
*347 clknet_leaf_30_clk
*348 clknet_leaf_31_clk
*349 clknet_leaf_32_clk
*350 clknet_leaf_33_clk
*351 clknet_leaf_34_clk
*352 clknet_leaf_35_clk
*353 clknet_leaf_36_clk
*354 clknet_leaf_37_clk
*355 clknet_leaf_38_clk
*356 clknet_leaf_39_clk
*357 clknet_leaf_3_clk
*358 clknet_leaf_40_clk
*359 clknet_leaf_41_clk
*360 clknet_leaf_42_clk
*361 clknet_leaf_43_clk
*362 clknet_leaf_44_clk
*363 clknet_leaf_45_clk
*364 clknet_leaf_4_clk
*365 clknet_leaf_5_clk
*366 clknet_leaf_6_clk
*367 clknet_leaf_7_clk
*368 clknet_leaf_8_clk
*369 clknet_leaf_9_clk
*370 net0
*371 net1
*372 net10
*373 net100
*374 net1000
*375 net1001
*376 net1002
*377 net1003
*378 net1004
*379 net1005
*380 net1006
*381 net1007
*382 net1008
*383 net1009
*384 net101
*385 net1010
*386 net1011
*387 net1012
*388 net1013
*389 net1014
*390 net1015
*391 net1016
*392 net1017
*393 net1018
*394 net1019
*395 net102
*396 net1020
*397 net1021
*398 net1022
*399 net1023
*400 net1024
*401 net1025
*402 net1026
*403 net1027
*404 net1028
*405 net1029
*406 net103
*407 net1030
*408 net1031
*409 net1032
*410 net1033
*411 net1034
*412 net1035
*413 net1036
*414 net1037
*415 net1038
*416 net1039
*417 net104
*418 net1040
*419 net1041
*420 net1042
*421 net1043
*422 net1044
*423 net1045
*424 net1046
*425 net1047
*426 net1048
*427 net1049
*428 net105
*429 net1050
*430 net1051
*431 net1052
*432 net1053
*433 net1054
*434 net1055
*435 net1056
*436 net1057
*437 net1058
*438 net1059
*439 net106
*440 net1060
*441 net1061
*442 net1062
*443 net1063
*444 net1064
*445 net1065
*446 net1066
*447 net1067
*448 net1068
*449 net1069
*450 net107
*451 net1070
*452 net1071
*453 net1072
*454 net1073
*455 net1074
*456 net1075
*457 net1076
*458 net1077
*459 net1078
*460 net1079
*461 net108
*462 net1080
*463 net1081
*464 net1082
*465 net1083
*466 net1084
*467 net1085
*468 net1086
*469 net1087
*470 net1088
*471 net1089
*472 net109
*473 net1090
*474 net1091
*475 net1092
*476 net1093
*477 net1094
*478 net1095
*479 net1096
*480 net1097
*481 net1098
*482 net1099
*483 net11
*484 net110
*485 net1100
*486 net1101
*487 net1102
*488 net1103
*489 net1104
*490 net1105
*491 net1106
*492 net1107
*493 net1108
*494 net1109
*495 net111
*496 net1110
*497 net1111
*498 net1112
*499 net1113
*500 net1114
*501 net1115
*502 net1116
*503 net1117
*504 net1118
*505 net1119
*506 net112
*507 net1120
*508 net1121
*509 net1122
*510 net1123
*511 net1124
*512 net1125
*513 net1126
*514 net1127
*515 net1128
*516 net1129
*517 net113
*518 net1130
*519 net1131
*520 net1132
*521 net1133
*522 net1134
*523 net1135
*524 net1136
*525 net1137
*526 net1138
*527 net1139
*528 net114
*529 net1140
*530 net1141
*531 net1142
*532 net1143
*533 net1144
*534 net1145
*535 net1146
*536 net1147
*537 net1148
*538 net1149
*539 net115
*540 net1150
*541 net1151
*542 net1152
*543 net1153
*544 net1154
*545 net1155
*546 net1156
*547 net1157
*548 net1158
*549 net1159
*550 net116
*551 net1160
*552 net1161
*553 net1162
*554 net1163
*555 net1164
*556 net1165
*557 net1166
*558 net1167
*559 net1168
*560 net1169
*561 net117
*562 net1170
*563 net1171
*564 net1172
*565 net1173
*566 net1174
*567 net1175
*568 net1176
*569 net1177
*570 net1178
*571 net1179
*572 net118
*573 net1180
*574 net1181
*575 net1182
*576 net1183
*577 net1184
*578 net1185
*579 net1186
*580 net1187
*581 net1188
*582 net1189
*583 net119
*584 net1190
*585 net1191
*586 net1192
*587 net12
*588 net120
*589 net121
*590 net122
*591 net123
*592 net124
*593 net125
*594 net126
*595 net127
*596 net128
*597 net129
*598 net13
*599 net130
*600 net131
*601 net132
*602 net133
*603 net134
*604 net135
*605 net136
*606 net137
*607 net138
*608 net139
*609 net14
*610 net140
*611 net141
*612 net142
*613 net143
*614 net144
*615 net145
*616 net146
*617 net147
*618 net148
*619 net149
*620 net15
*621 net150
*622 net151
*623 net152
*624 net153
*625 net154
*626 net155
*627 net156
*628 net157
*629 net158
*630 net159
*631 net16
*632 net160
*633 net161
*634 net162
*635 net163
*636 net164
*637 net165
*638 net166
*639 net167
*640 net168
*641 net169
*642 net17
*643 net170
*644 net171
*645 net172
*646 net173
*647 net174
*648 net175
*649 net176
*650 net177
*651 net178
*652 net179
*653 net18
*654 net180
*655 net181
*656 net182
*657 net183
*658 net184
*659 net185
*660 net186
*661 net187
*662 net188
*663 net189
*664 net19
*665 net190
*666 net191
*667 net192
*668 net193
*669 net194
*670 net195
*671 net196
*672 net197
*673 net198
*674 net199
*675 net2
*676 net20
*677 net200
*678 net201
*679 net202
*680 net203
*681 net204
*682 net205
*683 net206
*684 net207
*685 net208
*686 net209
*687 net21
*688 net210
*689 net211
*690 net212
*691 net213
*692 net214
*693 net215
*694 net216
*695 net217
*696 net218
*697 net219
*698 net22
*699 net220
*700 net221
*701 net222
*702 net223
*703 net224
*704 net225
*705 net226
*706 net227
*707 net228
*708 net229
*709 net23
*710 net230
*711 net231
*712 net232
*713 net233
*714 net234
*715 net235
*716 net236
*717 net237
*718 net238
*719 net239
*720 net24
*721 net240
*722 net241
*723 net242
*724 net243
*725 net244
*726 net245
*727 net246
*728 net247
*729 net248
*730 net249
*731 net25
*732 net250
*733 net251
*734 net252
*735 net253
*736 net254
*737 net255
*738 net256
*739 net257
*740 net258
*741 net259
*742 net26
*743 net260
*744 net261
*745 net262
*746 net263
*747 net264
*748 net265
*749 net266
*750 net267
*751 net268
*752 net269
*753 net27
*754 net270
*755 net271
*756 net272
*757 net273
*758 net274
*759 net275
*760 net276
*761 net277
*762 net278
*763 net279
*764 net28
*765 net280
*766 net281
*767 net282
*768 net283
*769 net284
*770 net285
*771 net286
*772 net287
*773 net288
*774 net289
*775 net29
*776 net290
*777 net291
*778 net292
*779 net293
*780 net294
*781 net295
*782 net296
*783 net297
*784 net298
*785 net299
*786 net3
*787 net30
*788 net300
*789 net301
*790 net302
*791 net303
*792 net304
*793 net305
*794 net306
*795 net307
*796 net308
*797 net309
*798 net31
*799 net310
*800 net311
*801 net312
*802 net313
*803 net314
*804 net315
*805 net316
*806 net317
*807 net318
*808 net319
*809 net32
*810 net320
*811 net321
*812 net322
*813 net323
*814 net324
*815 net325
*816 net326
*817 net327
*818 net328
*819 net329
*820 net33
*821 net330
*822 net331
*823 net332
*824 net333
*825 net334
*826 net335
*827 net336
*828 net337
*829 net338
*830 net339
*831 net34
*832 net340
*833 net341
*834 net342
*835 net343
*836 net344
*837 net345
*838 net346
*839 net347
*840 net348
*841 net349
*842 net35
*843 net350
*844 net351
*845 net352
*846 net353
*847 net354
*848 net355
*849 net356
*850 net357
*851 net358
*852 net359
*853 net36
*854 net360
*855 net361
*856 net362
*857 net363
*858 net364
*859 net365
*860 net366
*861 net367
*862 net368
*863 net369
*864 net37
*865 net370
*866 net371
*867 net372
*868 net373
*869 net374
*870 net375
*871 net376
*872 net377
*873 net378
*874 net379
*875 net38
*876 net380
*877 net381
*878 net382
*879 net383
*880 net384
*881 net385
*882 net386
*883 net387
*884 net388
*885 net389
*886 net39
*887 net390
*888 net391
*889 net392
*890 net393
*891 net394
*892 net395
*893 net396
*894 net397
*895 net398
*896 net399
*897 net4
*898 net40
*899 net400
*900 net401
*901 net402
*902 net403
*903 net404
*904 net405
*905 net406
*906 net407
*907 net408
*908 net409
*909 net41
*910 net410
*911 net411
*912 net412
*913 net413
*914 net414
*915 net415
*916 net416
*917 net417
*918 net418
*919 net419
*920 net42
*921 net420
*922 net421
*923 net422
*924 net423
*925 net424
*926 net425
*927 net426
*928 net427
*929 net428
*930 net429
*931 net43
*932 net430
*933 net431
*934 net432
*935 net433
*936 net434
*937 net435
*938 net436
*939 net437
*940 net438
*941 net439
*942 net44
*943 net440
*944 net441
*945 net442
*946 net443
*947 net444
*948 net445
*949 net446
*950 net447
*951 net448
*952 net449
*953 net45
*954 net450
*955 net451
*956 net452
*957 net453
*958 net454
*959 net455
*960 net456
*961 net457
*962 net458
*963 net459
*964 net46
*965 net460
*966 net461
*967 net462
*968 net463
*969 net464
*970 net465
*971 net466
*972 net467
*973 net468
*974 net469
*975 net47
*976 net470
*977 net471
*978 net472
*979 net473
*980 net474
*981 net475
*982 net476
*983 net477
*984 net478
*985 net479
*986 net48
*987 net480
*988 net481
*989 net482
*990 net483
*991 net484
*992 net485
*993 net486
*994 net487
*995 net488
*996 net489
*997 net49
*998 net490
*999 net491
*1000 net492
*1001 net493
*1002 net494
*1003 net495
*1004 net496
*1005 net497
*1006 net498
*1007 net499
*1008 net5
*1009 net50
*1010 net500
*1011 net501
*1012 net502
*1013 net503
*1014 net504
*1015 net505
*1016 net506
*1017 net507
*1018 net508
*1019 net509
*1020 net51
*1021 net510
*1022 net511
*1023 net512
*1024 net513
*1025 net514
*1026 net515
*1027 net516
*1028 net517
*1029 net518
*1030 net519
*1031 net52
*1032 net520
*1033 net521
*1034 net522
*1035 net523
*1036 net524
*1037 net525
*1038 net526
*1039 net527
*1040 net528
*1041 net529
*1042 net53
*1043 net530
*1044 net531
*1045 net532
*1046 net533
*1047 net534
*1048 net535
*1049 net536
*1050 net537
*1051 net538
*1052 net539
*1053 net54
*1054 net540
*1055 net541
*1056 net542
*1057 net543
*1058 net544
*1059 net545
*1060 net546
*1061 net547
*1062 net548
*1063 net549
*1064 net55
*1065 net550
*1066 net551
*1067 net552
*1068 net553
*1069 net554
*1070 net555
*1071 net556
*1072 net557
*1073 net558
*1074 net559
*1075 net56
*1076 net560
*1077 net561
*1078 net562
*1079 net563
*1080 net564
*1081 net565
*1082 net566
*1083 net567
*1084 net568
*1085 net569
*1086 net57
*1087 net570
*1088 net571
*1089 net572
*1090 net573
*1091 net574
*1092 net575
*1093 net576
*1094 net577
*1095 net578
*1096 net579
*1097 net58
*1098 net580
*1099 net581
*1100 net582
*1101 net583
*1102 net584
*1103 net585
*1104 net586
*1105 net587
*1106 net588
*1107 net589
*1108 net59
*1109 net590
*1110 net591
*1111 net592
*1112 net593
*1113 net594
*1114 net595
*1115 net596
*1116 net597
*1117 net598
*1118 net599
*1119 net6
*1120 net60
*1121 net600
*1122 net601
*1123 net602
*1124 net603
*1125 net604
*1126 net605
*1127 net606
*1128 net607
*1129 net608
*1130 net609
*1131 net61
*1132 net610
*1133 net611
*1134 net612
*1135 net613
*1136 net614
*1137 net615
*1138 net616
*1139 net617
*1140 net618
*1141 net619
*1142 net62
*1143 net620
*1144 net621
*1145 net622
*1146 net623
*1147 net624
*1148 net625
*1149 net626
*1150 net627
*1151 net628
*1152 net629
*1153 net63
*1154 net630
*1155 net631
*1156 net632
*1157 net633
*1158 net634
*1159 net635
*1160 net636
*1161 net637
*1162 net638
*1163 net639
*1164 net64
*1165 net640
*1166 net641
*1167 net642
*1168 net643
*1169 net644
*1170 net645
*1171 net646
*1172 net647
*1173 net648
*1174 net649
*1175 net65
*1176 net650
*1177 net651
*1178 net652
*1179 net653
*1180 net654
*1181 net655
*1182 net656
*1183 net657
*1184 net658
*1185 net659
*1186 net66
*1187 net660
*1188 net661
*1189 net662
*1190 net663
*1191 net664
*1192 net665
*1193 net666
*1194 net667
*1195 net668
*1196 net669
*1197 net67
*1198 net670
*1199 net671
*1200 net672
*1201 net673
*1202 net674
*1203 net675
*1204 net676
*1205 net677
*1206 net678
*1207 net679
*1208 net68
*1209 net680
*1210 net681
*1211 net682
*1212 net683
*1213 net684
*1214 net685
*1215 net686
*1216 net687
*1217 net688
*1218 net689
*1219 net69
*1220 net690
*1221 net691
*1222 net692
*1223 net693
*1224 net694
*1225 net695
*1226 net696
*1227 net697
*1228 net698
*1229 net699
*1230 net7
*1231 net70
*1232 net700
*1233 net701
*1234 net702
*1235 net703
*1236 net704
*1237 net705
*1238 net706
*1239 net707
*1240 net708
*1241 net709
*1242 net71
*1243 net710
*1244 net711
*1245 net712
*1246 net713
*1247 net714
*1248 net715
*1249 net716
*1250 net717
*1251 net718
*1252 net719
*1253 net72
*1254 net720
*1255 net721
*1256 net722
*1257 net723
*1258 net724
*1259 net725
*1260 net726
*1261 net727
*1262 net728
*1263 net729
*1264 net73
*1265 net730
*1266 net731
*1267 net732
*1268 net733
*1269 net734
*1270 net735
*1271 net736
*1272 net737
*1273 net738
*1274 net739
*1275 net74
*1276 net740
*1277 net741
*1278 net742
*1279 net743
*1280 net744
*1281 net745
*1282 net746
*1283 net747
*1284 net748
*1285 net749
*1286 net75
*1287 net750
*1288 net751
*1289 net752
*1290 net753
*1291 net754
*1292 net755
*1293 net756
*1294 net757
*1295 net758
*1296 net759
*1297 net76
*1298 net760
*1299 net761
*1300 net762
*1301 net763
*1302 net764
*1303 net765
*1304 net766
*1305 net767
*1306 net768
*1307 net769
*1308 net77
*1309 net770
*1310 net771
*1311 net772
*1312 net773
*1313 net774
*1314 net775
*1315 net776
*1316 net777
*1317 net778
*1318 net779
*1319 net78
*1320 net780
*1321 net781
*1322 net782
*1323 net783
*1324 net784
*1325 net785
*1326 net786
*1327 net787
*1328 net788
*1329 net789
*1330 net79
*1331 net790
*1332 net791
*1333 net792
*1334 net793
*1335 net794
*1336 net795
*1337 net796
*1338 net797
*1339 net798
*1340 net799
*1341 net8
*1342 net80
*1343 net800
*1344 net801
*1345 net802
*1346 net803
*1347 net804
*1348 net805
*1349 net806
*1350 net807
*1351 net808
*1352 net809
*1353 net81
*1354 net810
*1355 net811
*1356 net812
*1357 net813
*1358 net814
*1359 net815
*1360 net816
*1361 net817
*1362 net818
*1363 net819
*1364 net82
*1365 net820
*1366 net821
*1367 net822
*1368 net823
*1369 net824
*1370 net825
*1371 net826
*1372 net827
*1373 net828
*1374 net829
*1375 net83
*1376 net830
*1377 net831
*1378 net832
*1379 net833
*1380 net834
*1381 net835
*1382 net836
*1383 net837
*1384 net838
*1385 net839
*1386 net84
*1387 net840
*1388 net841
*1389 net842
*1390 net843
*1391 net844
*1392 net845
*1393 net846
*1394 net847
*1395 net848
*1396 net849
*1397 net85
*1398 net850
*1399 net851
*1400 net852
*1401 net853
*1402 net854
*1403 net855
*1404 net856
*1405 net857
*1406 net858
*1407 net859
*1408 net86
*1409 net860
*1410 net861
*1411 net862
*1412 net863
*1413 net864
*1414 net865
*1415 net866
*1416 net867
*1417 net868
*1418 net869
*1419 net87
*1420 net870
*1421 net871
*1422 net872
*1423 net873
*1424 net874
*1425 net875
*1426 net876
*1427 net877
*1428 net878
*1429 net879
*1430 net88
*1431 net880
*1432 net881
*1433 net882
*1434 net883
*1435 net884
*1436 net885
*1437 net886
*1438 net887
*1439 net888
*1440 net889
*1441 net89
*1442 net890
*1443 net891
*1444 net892
*1445 net893
*1446 net894
*1447 net895
*1448 net896
*1449 net897
*1450 net898
*1451 net899
*1452 net9
*1453 net90
*1454 net900
*1455 net901
*1456 net902
*1457 net903
*1458 net904
*1459 net905
*1460 net906
*1461 net907
*1462 net908
*1463 net909
*1464 net91
*1465 net910
*1466 net911
*1467 net912
*1468 net913
*1469 net914
*1470 net915
*1471 net916
*1472 net917
*1473 net918
*1474 net919
*1475 net92
*1476 net920
*1477 net921
*1478 net922
*1479 net923
*1480 net924
*1481 net925
*1482 net926
*1483 net927
*1484 net928
*1485 net929
*1486 net93
*1487 net930
*1488 net931
*1489 net932
*1490 net933
*1491 net934
*1492 net935
*1493 net936
*1494 net937
*1495 net938
*1496 net939
*1497 net94
*1498 net940
*1499 net941
*1500 net942
*1501 net943
*1502 net944
*1503 net945
*1504 net946
*1505 net947
*1506 net948
*1507 net949
*1508 net95
*1509 net950
*1510 net951
*1511 net952
*1512 net953
*1513 net954
*1514 net955
*1515 net956
*1516 net957
*1517 net958
*1518 net959
*1519 net96
*1520 net960
*1521 net961
*1522 net962
*1523 net963
*1524 net964
*1525 net965
*1526 net966
*1527 net967
*1528 net968
*1529 net969
*1530 net97
*1531 net970
*1532 net971
*1533 net972
*1534 net973
*1535 net974
*1536 net975
*1537 net976
*1538 net977
*1539 net978
*1540 net979
*1541 net98
*1542 net980
*1543 net981
*1544 net982
*1545 net983
*1546 net984
*1547 net985
*1548 net986
*1549 net987
*1550 net988
*1551 net989
*1552 net99
*1553 net990
*1554 net991
*1555 net992
*1556 net993
*1557 net994
*1558 net995
*1559 net996
*1560 net997
*1561 net998
*1562 net999
*1563 ANTENNA_c147_A
*1564 ANTENNA_c149_A
*1565 ANTENNA_c165_C
*1566 ANTENNA_c192_X
*1567 ANTENNA_c195_X
*1568 ANTENNA_c200_SCD
*1569 ANTENNA_c201_SCE
*1570 ANTENNA_c202_A2
*1571 ANTENNA_c203_S0
*1572 ANTENNA_c206_A3
*1573 ANTENNA_c209_A3
*1574 ANTENNA_c211_A
*1575 ANTENNA_c229_Q
*1576 ANTENNA_c230_X
*1577 ANTENNA_c240_X
*1578 ANTENNA_c242_C1
*1579 ANTENNA_c250_A1
*1580 ANTENNA_c251_A2
*1581 ANTENNA_c252_A
*1582 ANTENNA_c25_B
*1583 ANTENNA_c26_C
*1584 ANTENNA_c293_X
*1585 ANTENNA_c315_A
*1586 ANTENNA_c324_X
*1587 ANTENNA_c326_SCD
*1588 ANTENNA_c327_A3
*1589 ANTENNA_c329_A3
*1590 ANTENNA_c332_SCD
*1591 ANTENNA_c332_SET_B
*1592 ANTENNA_c337_A
*1593 ANTENNA_c338_B
*1594 ANTENNA_c339_A
*1595 ANTENNA_c33_X
*1596 ANTENNA_c349_SCD
*1597 ANTENNA_c34_X
*1598 ANTENNA_c354_S0
*1599 ANTENNA_c359_A
*1600 ANTENNA_c35_A3
*1601 ANTENNA_c360_B
*1602 ANTENNA_c36_SET_B
*1603 ANTENNA_c373_S0
*1604 ANTENNA_c37_A3
*1605 ANTENNA_c385_Q
*1606 ANTENNA_c385_Q_N
*1607 ANTENNA_c38_RESET_B
*1608 ANTENNA_c392_S1
*1609 ANTENNA_c394_SCE
*1610 ANTENNA_c395_SCE
*1611 ANTENNA_c399_B
*1612 ANTENNA_c400_B
*1613 ANTENNA_c403_SCE
*1614 ANTENNA_c407_SCD
*1615 ANTENNA_c407_SET_B
*1616 ANTENNA_c408_SET_B
*1617 ANTENNA_c40_A2
*1618 ANTENNA_c411_RESET_B
*1619 ANTENNA_c411_SET_B
*1620 ANTENNA_c41_A2
*1621 ANTENNA_c428_B
*1622 ANTENNA_c42_A
*1623 ANTENNA_c433_D_N
*1624 ANTENNA_c434_B
*1625 ANTENNA_c435_S0
*1626 ANTENNA_c436_SCD
*1627 ANTENNA_c437_S0
*1628 ANTENNA_c438_S0
*1629 ANTENNA_c43_B
*1630 ANTENNA_c449_B
*1631 ANTENNA_c461_S1
*1632 ANTENNA_c464_B
*1633 ANTENNA_c469_C1
*1634 ANTENNA_c469_D1
*1635 ANTENNA_c505_A
*1636 ANTENNA_c525_B
*1637 ANTENNA_c532_A1
*1638 ANTENNA_c532_S0
*1639 ANTENNA_c534_C
*1640 ANTENNA_c538_A3
*1641 ANTENNA_c53_B
*1642 ANTENNA_c542_S1
*1643 ANTENNA_c548_X
*1644 ANTENNA_c549_SET_B
*1645 ANTENNA_c54_SET_B
*1646 ANTENNA_c550_D
*1647 ANTENNA_c551_RESET_B
*1648 ANTENNA_c556_B
*1649 ANTENNA_c557_A2
*1650 ANTENNA_c560_A2
*1651 ANTENNA_c561_D
*1652 ANTENNA_c561_SCE
*1653 ANTENNA_c563_DE
*1654 ANTENNA_c566_SCE
*1655 ANTENNA_c571_B
*1656 ANTENNA_c590_B
*1657 ANTENNA_c593_B
*1658 ANTENNA_c604_A1
*1659 ANTENNA_c630_A
*1660 ANTENNA_c631_B
*1661 ANTENNA_c632_B
*1662 ANTENNA_c637_SCE
*1663 ANTENNA_c642_D1
*1664 ANTENNA_c647_S0
*1665 ANTENNA_c650_A2
*1666 ANTENNA_c656_B
*1667 ANTENNA_c667_S0
*1668 ANTENNA_c670_A3
*1669 ANTENNA_c675_B
*1670 ANTENNA_c68_B
*1671 ANTENNA_c691_A1
*1672 ANTENNA_c692_A2
*1673 ANTENNA_c70_SET_B
*1674 ANTENNA_c76_D_N
*1675 ANTENNA_c77_S0
*1676 ANTENNA_c78_S0
*1677 ANTENNA_c79_S0
*1678 ANTENNA_c80_D
*1679 ANTENNA_c81_A3
*1680 ANTENNA_clkbuf_0_clk_A
*1681 ANTENNA_clkbuf_0_clk_X
*1682 ANTENNA_clkbuf_2_0__f_clk_A
*1683 ANTENNA_clkbuf_2_0__f_clk_X
*1684 ANTENNA_clkbuf_2_1__f_clk_A
*1685 ANTENNA_clkbuf_2_1__f_clk_X
*1686 ANTENNA_clkbuf_2_2__f_clk_A
*1687 ANTENNA_clkbuf_2_2__f_clk_X
*1688 ANTENNA_clkbuf_2_3__f_clk_A
*1689 ANTENNA_clkbuf_2_3__f_clk_X
*1690 ANTENNA_clkbuf_leaf_0_clk_A
*1691 ANTENNA_clkbuf_leaf_10_clk_A
*1692 ANTENNA_clkbuf_leaf_11_clk_A
*1693 ANTENNA_clkbuf_leaf_12_clk_A
*1694 ANTENNA_clkbuf_leaf_13_clk_A
*1695 ANTENNA_clkbuf_leaf_14_clk_A
*1696 ANTENNA_clkbuf_leaf_15_clk_A
*1697 ANTENNA_clkbuf_leaf_16_clk_A
*1698 ANTENNA_clkbuf_leaf_17_clk_A
*1699 ANTENNA_clkbuf_leaf_18_clk_A
*1700 ANTENNA_clkbuf_leaf_19_clk_A
*1701 ANTENNA_clkbuf_leaf_1_clk_A
*1702 ANTENNA_clkbuf_leaf_20_clk_A
*1703 ANTENNA_clkbuf_leaf_21_clk_A
*1704 ANTENNA_clkbuf_leaf_22_clk_A
*1705 ANTENNA_clkbuf_leaf_23_clk_A
*1706 ANTENNA_clkbuf_leaf_24_clk_A
*1707 ANTENNA_clkbuf_leaf_25_clk_A
*1708 ANTENNA_clkbuf_leaf_26_clk_A
*1709 ANTENNA_clkbuf_leaf_27_clk_A
*1710 ANTENNA_clkbuf_leaf_28_clk_A
*1711 ANTENNA_clkbuf_leaf_29_clk_A
*1712 ANTENNA_clkbuf_leaf_2_clk_A
*1713 ANTENNA_clkbuf_leaf_30_clk_A
*1714 ANTENNA_clkbuf_leaf_31_clk_A
*1715 ANTENNA_clkbuf_leaf_32_clk_A
*1716 ANTENNA_clkbuf_leaf_33_clk_A
*1717 ANTENNA_clkbuf_leaf_34_clk_A
*1718 ANTENNA_clkbuf_leaf_35_clk_A
*1719 ANTENNA_clkbuf_leaf_36_clk_A
*1720 ANTENNA_clkbuf_leaf_37_clk_A
*1721 ANTENNA_clkbuf_leaf_38_clk_A
*1722 ANTENNA_clkbuf_leaf_39_clk_A
*1723 ANTENNA_clkbuf_leaf_3_clk_A
*1724 ANTENNA_clkbuf_leaf_40_clk_A
*1725 ANTENNA_clkbuf_leaf_41_clk_A
*1726 ANTENNA_clkbuf_leaf_42_clk_A
*1727 ANTENNA_clkbuf_leaf_43_clk_A
*1728 ANTENNA_clkbuf_leaf_44_clk_A
*1729 ANTENNA_clkbuf_leaf_45_clk_A
*1730 ANTENNA_clkbuf_leaf_4_clk_A
*1731 ANTENNA_clkbuf_leaf_5_clk_A
*1732 ANTENNA_clkbuf_leaf_6_clk_A
*1733 ANTENNA_clkbuf_leaf_7_clk_A
*1734 ANTENNA_clkbuf_leaf_8_clk_A
*1735 ANTENNA_clkbuf_leaf_9_clk_A
*1736 ANTENNA_fanout39_X
*1737 ANTENNA_fanout40_X
*1738 ANTENNA_fanout41_X
*1739 ANTENNA_fanout47_A
*1740 ANTENNA_fanout48_X
*1741 ANTENNA_fanout51_A
*1742 ANTENNA_fanout51_X
*1743 ANTENNA_hold28_A
*1744 ANTENNA_hold74_A
*1745 ANTENNA_hold86_A
*1746 ANTENNA_input10_A
*1747 ANTENNA_input11_A
*1748 ANTENNA_input12_A
*1749 ANTENNA_input13_A
*1750 ANTENNA_input14_A
*1751 ANTENNA_input15_A
*1752 ANTENNA_input16_A
*1753 ANTENNA_input17_A
*1754 ANTENNA_input18_A
*1755 ANTENNA_input19_A
*1756 ANTENNA_input1_A
*1757 ANTENNA_input20_A
*1758 ANTENNA_input21_A
*1759 ANTENNA_input22_A
*1760 ANTENNA_input23_A
*1761 ANTENNA_input24_A
*1762 ANTENNA_input2_A
*1763 ANTENNA_input3_A
*1764 ANTENNA_input4_A
*1765 ANTENNA_input5_A
*1766 ANTENNA_input6_A
*1767 ANTENNA_input7_A
*1768 ANTENNA_input8_A
*1769 ANTENNA_input9_A
*1770 ANTENNA_merge740_RESET_B
*1771 ANTENNA_merge740_SCD
*1772 ANTENNA_merge740_SCE
*1773 ANTENNA_merge743_RESET_B
*1774 ANTENNA_merge744_D
*1775 ANTENNA_merge754_SCE
*1776 ANTENNA_merge759_A2
*1777 ANTENNA_merge762_RESET_B
*1778 ANTENNA_merge771_RESET_B
*1779 ANTENNA_merge774_SCE
*1780 ANTENNA_merge776_D
*1781 ANTENNA_merge776_RESET_B
*1782 ANTENNA_merge782_SET_B
*1783 ANTENNA_merge784_A1
*1784 ANTENNA_merge784_S1
*1785 ANTENNA_merge785_A0
*1786 ANTENNA_merge788_A3
*1787 ANTENNA_merge788_S0
*1788 ANTENNA_merge788_S1
*1789 ANTENNA_merge789_A2
*1790 ANTENNA_merge795_A2
*1791 ANTENNA_merge797_S1
*1792 ANTENNA_merge798_A0
*1793 ANTENNA_merge798_S0
*1794 ANTENNA_merge798_S1
*1795 ANTENNA_merge809_A3
*1796 ANTENNA_output29_A
*1797 ANTENNA_s857_Q
*1798 ANTENNA_s877_Q
*1799 ANTENNA_s886_Q