*SPEF "ieee 1481-1999"
*DESIGN "netlist_1"
*DATE "23:31:38 Saturday August 17, 2024"
*VENDOR "The OpenROAD Project"
*PROGRAM "OpenROAD"
*VERSION "d423155d69de7f683a23f6916ead418a615ad4ad"
*DESIGN_FLOW "NAME_SCOPE LOCAL" "PIN_CAP NONE"
*DIVIDER /
*DELIMITER :
*BUS_DELIMITER []
*T_UNIT 1 NS
*C_UNIT 1 PF
*R_UNIT 1 OHM
*L_UNIT 1 HENRY

*NAME_MAP
*3 clk
*4 in0
*5 in1
*6 in10
*7 in11
*8 in12
*9 in13
*10 in14
*11 in15
*12 in16
*13 in17
*14 in18
*15 in19
*16 in2
*17 in20
*18 in21
*19 in22
*20 in23
*21 in24
*22 in25
*23 in26
*24 in27
*25 in28
*26 in29
*27 in3
*28 in30
*29 in31
*30 in32
*31 in33
*32 in34
*33 in35
*34 in36
*35 in37
*36 in38
*37 in39
*38 in4
*39 in40
*40 in41
*41 in42
*42 in43
*43 in44
*44 in45
*45 in46
*46 in47
*47 in48
*48 in49
*49 in5
*50 in50
*51 in51
*52 in52
*53 in53
*54 in54
*55 in55
*56 in56
*57 in57
*58 in58
*59 in59
*60 in6
*61 in60
*62 in61
*63 in62
*64 in63
*65 in64
*66 in65
*67 in66
*68 in67
*69 in68
*70 in69
*71 in7
*72 in70
*73 in71
*74 in72
*75 in73
*76 in74
*77 in75
*78 in76
*79 in77
*80 in78
*81 in79
*82 in8
*83 in80
*84 in81
*85 in82
*86 in83
*87 in84
*88 in85
*89 in86
*90 in87
*91 in88
*92 in89
*93 in9
*94 in90
*95 in91
*96 in92
*97 in93
*98 in94
*99 in95
*100 in96
*101 in97
*102 in98
*103 in99
*104 out0
*105 out1
*106 out10
*107 out11
*108 out12
*109 out13
*110 out14
*111 out15
*112 out16
*113 out17
*114 out18
*115 out19
*116 out2
*117 out20
*118 out21
*119 out22
*120 out23
*121 out24
*122 out25
*123 out26
*124 out27
*125 out28
*126 out29
*127 out3
*128 out30
*129 out31
*130 out32
*131 out33
*132 out34
*133 out35
*134 out36
*135 out37
*136 out38
*137 out39
*138 out4
*139 out40
*140 out41
*141 out42
*142 out43
*143 out44
*144 out45
*145 out46
*146 out47
*147 out48
*148 out49
*149 out5
*150 out50
*151 out51
*152 out52
*153 out53
*154 out54
*155 out55
*156 out56
*157 out57
*158 out58
*159 out59
*160 out6
*161 out60
*162 out61
*163 out62
*164 out63
*165 out64
*166 out65
*167 out66
*168 out67
*169 out68
*170 out69
*171 out7
*172 out70
*173 out71
*174 out72
*175 out73
*176 out74
*177 out75
*178 out76
*179 out77
*180 out78
*181 out79
*182 out8
*183 out80
*184 out81
*185 out82
*186 out83
*187 out84
*188 out85
*189 out86
*190 out87
*191 out88
*192 out89
*193 out9
*194 out90
*195 out91
*196 out92
*197 out93
*198 out94
*199 out95
*200 out96
*201 out97
*202 out98
*203 out99
*204 rst
*205 clknet_0_clk
*206 clknet_0_net102
*207 clknet_0_net105
*208 clknet_0_net106
*209 clknet_0_net108
*210 clknet_0_net111
*211 clknet_0_net112
*212 clknet_0_net113
*213 clknet_0_net118
*214 clknet_0_net170
*215 clknet_0_net173
*216 clknet_0_net174
*217 clknet_0_net175
*218 clknet_0_net178
*219 clknet_0_net184
*220 clknet_0_net185
*221 clknet_0_net206
*222 clknet_0_net288
*223 clknet_0_net289
*224 clknet_0_net309
*225 clknet_0_net327
*226 clknet_0_net419
*227 clknet_0_net421
*228 clknet_0_net423
*229 clknet_0_net433
*230 clknet_0_net454
*231 clknet_0_net455
*232 clknet_0_net530
*233 clknet_0_net602
*234 clknet_0_net642
*235 clknet_0_net643
*236 clknet_0_net662
*237 clknet_0_net663
*238 clknet_0_net679
*239 clknet_0_net680
*240 clknet_0_net806
*241 clknet_1_0__leaf_net102
*242 clknet_1_0__leaf_net105
*243 clknet_1_0__leaf_net106
*244 clknet_1_0__leaf_net108
*245 clknet_1_0__leaf_net111
*246 clknet_1_0__leaf_net112
*247 clknet_1_0__leaf_net113
*248 clknet_1_0__leaf_net118
*249 clknet_1_0__leaf_net170
*250 clknet_1_0__leaf_net173
*251 clknet_1_0__leaf_net174
*252 clknet_1_0__leaf_net175
*253 clknet_1_0__leaf_net178
*254 clknet_1_0__leaf_net184
*255 clknet_1_0__leaf_net185
*256 clknet_1_0__leaf_net206
*257 clknet_1_0__leaf_net288
*258 clknet_1_0__leaf_net289
*259 clknet_1_0__leaf_net309
*260 clknet_1_0__leaf_net327
*261 clknet_1_0__leaf_net419
*262 clknet_1_0__leaf_net421
*263 clknet_1_0__leaf_net423
*264 clknet_1_0__leaf_net433
*265 clknet_1_0__leaf_net454
*266 clknet_1_0__leaf_net455
*267 clknet_1_0__leaf_net530
*268 clknet_1_0__leaf_net602
*269 clknet_1_0__leaf_net642
*270 clknet_1_0__leaf_net643
*271 clknet_1_0__leaf_net662
*272 clknet_1_0__leaf_net663
*273 clknet_1_0__leaf_net679
*274 clknet_1_0__leaf_net680
*275 clknet_1_0__leaf_net806
*276 clknet_1_1__leaf_net102
*277 clknet_1_1__leaf_net105
*278 clknet_1_1__leaf_net106
*279 clknet_1_1__leaf_net108
*280 clknet_1_1__leaf_net111
*281 clknet_1_1__leaf_net112
*282 clknet_1_1__leaf_net113
*283 clknet_1_1__leaf_net118
*284 clknet_1_1__leaf_net170
*285 clknet_1_1__leaf_net173
*286 clknet_1_1__leaf_net174
*287 clknet_1_1__leaf_net175
*288 clknet_1_1__leaf_net178
*289 clknet_1_1__leaf_net184
*290 clknet_1_1__leaf_net185
*291 clknet_1_1__leaf_net206
*292 clknet_1_1__leaf_net288
*293 clknet_1_1__leaf_net289
*294 clknet_1_1__leaf_net309
*295 clknet_1_1__leaf_net327
*296 clknet_1_1__leaf_net419
*297 clknet_1_1__leaf_net421
*298 clknet_1_1__leaf_net423
*299 clknet_1_1__leaf_net433
*300 clknet_1_1__leaf_net454
*301 clknet_1_1__leaf_net455
*302 clknet_1_1__leaf_net530
*303 clknet_1_1__leaf_net602
*304 clknet_1_1__leaf_net642
*305 clknet_1_1__leaf_net643
*306 clknet_1_1__leaf_net662
*307 clknet_1_1__leaf_net663
*308 clknet_1_1__leaf_net679
*309 clknet_1_1__leaf_net680
*310 clknet_1_1__leaf_net806
*311 clknet_2_0__leaf_clk
*312 clknet_2_1__leaf_clk
*313 clknet_2_2__leaf_clk
*314 clknet_2_3__leaf_clk
*315 clknet_leaf_0_clk
*316 clknet_leaf_10_clk
*317 clknet_leaf_11_clk
*318 clknet_leaf_12_clk
*319 clknet_leaf_13_clk
*320 clknet_leaf_14_clk
*321 clknet_leaf_15_clk
*322 clknet_leaf_16_clk
*323 clknet_leaf_17_clk
*324 clknet_leaf_18_clk
*325 clknet_leaf_19_clk
*326 clknet_leaf_1_clk
*327 clknet_leaf_20_clk
*328 clknet_leaf_21_clk
*329 clknet_leaf_22_clk
*330 clknet_leaf_23_clk
*331 clknet_leaf_24_clk
*332 clknet_leaf_25_clk
*333 clknet_leaf_27_clk
*334 clknet_leaf_28_clk
*335 clknet_leaf_29_clk
*336 clknet_leaf_2_clk
*337 clknet_leaf_30_clk
*338 clknet_leaf_31_clk
*339 clknet_leaf_32_clk
*340 clknet_leaf_33_clk
*341 clknet_leaf_34_clk
*342 clknet_leaf_35_clk
*343 clknet_leaf_36_clk
*344 clknet_leaf_37_clk
*345 clknet_leaf_38_clk
*346 clknet_leaf_39_clk
*347 clknet_leaf_3_clk
*348 clknet_leaf_40_clk
*349 clknet_leaf_41_clk
*350 clknet_leaf_4_clk
*351 clknet_leaf_5_clk
*352 clknet_leaf_6_clk
*353 clknet_leaf_7_clk
*354 clknet_leaf_8_clk
*355 clknet_leaf_9_clk
*356 net0
*357 net1
*358 net10
*359 net100
*360 net101
*361 net102
*362 net103
*363 net104
*364 net105
*365 net106
*366 net107
*367 net108
*368 net109
*369 net11
*370 net110
*371 net111
*372 net112
*373 net113
*374 net114
*375 net115
*376 net116
*377 net117
*378 net118
*379 net119
*380 net12
*381 net120
*382 net121
*383 net122
*384 net123
*385 net124
*386 net125
*387 net126
*388 net127
*389 net128
*390 net129
*391 net13
*392 net130
*393 net131
*394 net132
*395 net133
*396 net134
*397 net135
*398 net136
*399 net137
*400 net138
*401 net139
*402 net14
*403 net140
*404 net141
*405 net142
*406 net143
*407 net144
*408 net145
*409 net146
*410 net147
*411 net148
*412 net149
*413 net15
*414 net150
*415 net151
*416 net152
*417 net153
*418 net154
*419 net155
*420 net156
*421 net157
*422 net158
*423 net159
*424 net16
*425 net160
*426 net161
*427 net162
*428 net163
*429 net164
*430 net165
*431 net166
*432 net167
*433 net168
*434 net169
*435 net17
*436 net170
*437 net171
*438 net172
*439 net173
*440 net174
*441 net175
*442 net176
*443 net177
*444 net178
*445 net179
*446 net18
*447 net180
*448 net181
*449 net182
*450 net183
*451 net184
*452 net185
*453 net186
*454 net187
*455 net188
*456 net189
*457 net19
*458 net190
*459 net191
*460 net192
*461 net193
*462 net194
*463 net195
*464 net196
*465 net197
*466 net198
*467 net199
*468 net2
*469 net20
*470 net200
*471 net201
*472 net202
*473 net203
*474 net204
*475 net205
*476 net206
*477 net207
*478 net208
*479 net209
*480 net21
*481 net210
*482 net211
*483 net212
*484 net213
*485 net214
*486 net215
*487 net216
*488 net217
*489 net218
*490 net219
*491 net22
*492 net220
*493 net221
*494 net222
*495 net223
*496 net224
*497 net225
*498 net226
*499 net227
*500 net228
*501 net229
*502 net23
*503 net230
*504 net231
*505 net232
*506 net233
*507 net234
*508 net235
*509 net236
*510 net237
*511 net238
*512 net239
*513 net24
*514 net240
*515 net241
*516 net242
*517 net243
*518 net244
*519 net245
*520 net246
*521 net247
*522 net248
*523 net249
*524 net25
*525 net250
*526 net251
*527 net252
*528 net253
*529 net254
*530 net255
*531 net256
*532 net257
*533 net258
*534 net259
*535 net26
*536 net260
*537 net261
*538 net262
*539 net263
*540 net264
*541 net265
*542 net266
*543 net267
*544 net268
*545 net269
*546 net27
*547 net270
*548 net271
*549 net272
*550 net273
*551 net274
*552 net275
*553 net276
*554 net277
*555 net278
*556 net279
*557 net28
*558 net280
*559 net281
*560 net282
*561 net283
*562 net284
*563 net285
*564 net286
*565 net287
*566 net288
*567 net289
*568 net29
*569 net290
*570 net291
*571 net292
*572 net293
*573 net294
*574 net295
*575 net296
*576 net297
*577 net298
*578 net299
*579 net3
*580 net30
*581 net300
*582 net301
*583 net302
*584 net303
*585 net304
*586 net305
*587 net306
*588 net307
*589 net308
*590 net309
*591 net31
*592 net310
*593 net311
*594 net312
*595 net313
*596 net314
*597 net315
*598 net316
*599 net317
*600 net318
*601 net319
*602 net32
*603 net320
*604 net321
*605 net322
*606 net323
*607 net324
*608 net325
*609 net326
*610 net327
*611 net328
*612 net329
*613 net33
*614 net330
*615 net331
*616 net332
*617 net333
*618 net334
*619 net335
*620 net336
*621 net337
*622 net338
*623 net339
*624 net34
*625 net340
*626 net341
*627 net342
*628 net343
*629 net344
*630 net345
*631 net346
*632 net347
*633 net348
*634 net349
*635 net35
*636 net350
*637 net351
*638 net352
*639 net353
*640 net354
*641 net355
*642 net356
*643 net357
*644 net358
*645 net359
*646 net36
*647 net360
*648 net361
*649 net362
*650 net363
*651 net364
*652 net365
*653 net366
*654 net367
*655 net368
*656 net369
*657 net37
*658 net370
*659 net371
*660 net372
*661 net373
*662 net374
*663 net375
*664 net376
*665 net377
*666 net378
*667 net379
*668 net38
*669 net380
*670 net381
*671 net382
*672 net383
*673 net384
*674 net385
*675 net386
*676 net387
*677 net388
*678 net389
*679 net39
*680 net390
*681 net391
*682 net392
*683 net393
*684 net394
*685 net395
*686 net396
*687 net397
*688 net398
*689 net399
*690 net4
*691 net40
*692 net400
*693 net401
*694 net402
*695 net403
*696 net404
*697 net405
*698 net406
*699 net407
*700 net408
*701 net409
*702 net41
*703 net410
*704 net411
*705 net412
*706 net413
*707 net414
*708 net415
*709 net416
*710 net417
*711 net418
*712 net419
*713 net42
*714 net420
*715 net421
*716 net422
*717 net423
*718 net424
*719 net425
*720 net426
*721 net427
*722 net428
*723 net429
*724 net43
*725 net430
*726 net431
*727 net432
*728 net433
*729 net434
*730 net435
*731 net436
*732 net437
*733 net438
*734 net439
*735 net44
*736 net440
*737 net441
*738 net442
*739 net443
*740 net444
*741 net445
*742 net446
*743 net447
*744 net448
*745 net449
*746 net45
*747 net450
*748 net451
*749 net452
*750 net453
*751 net454
*752 net455
*753 net456
*754 net457
*755 net458
*756 net459
*757 net46
*758 net460
*759 net461
*760 net462
*761 net463
*762 net464
*763 net465
*764 net466
*765 net467
*766 net468
*767 net469
*768 net47
*769 net470
*770 net471
*771 net472
*772 net473
*773 net474
*774 net475
*775 net476
*776 net477
*777 net478
*778 net479
*779 net48
*780 net480
*781 net481
*782 net482
*783 net483
*784 net484
*785 net485
*786 net486
*787 net487
*788 net488
*789 net489
*790 net49
*791 net490
*792 net491
*793 net492
*794 net493
*795 net494
*796 net495
*797 net496
*798 net497
*799 net498
*800 net499
*801 net5
*802 net50
*803 net500
*804 net501
*805 net502
*806 net503
*807 net504
*808 net505
*809 net506
*810 net507
*811 net508
*812 net509
*813 net51
*814 net510
*815 net511
*816 net512
*817 net513
*818 net514
*819 net515
*820 net516
*821 net517
*822 net518
*823 net519
*824 net52
*825 net520
*826 net521
*827 net522
*828 net523
*829 net524
*830 net525
*831 net526
*832 net527
*833 net528
*834 net529
*835 net53
*836 net530
*837 net531
*838 net532
*839 net533
*840 net534
*841 net535
*842 net536
*843 net537
*844 net538
*845 net539
*846 net54
*847 net540
*848 net541
*849 net542
*850 net543
*851 net544
*852 net545
*853 net546
*854 net547
*855 net548
*856 net549
*857 net55
*858 net550
*859 net551
*860 net552
*861 net553
*862 net554
*863 net555
*864 net556
*865 net557
*866 net558
*867 net559
*868 net56
*869 net560
*870 net561
*871 net562
*872 net563
*873 net564
*874 net565
*875 net566
*876 net567
*877 net568
*878 net569
*879 net57
*880 net570
*881 net571
*882 net572
*883 net573
*884 net574
*885 net575
*886 net576
*887 net577
*888 net578
*889 net579
*890 net58
*891 net580
*892 net581
*893 net582
*894 net583
*895 net584
*896 net585
*897 net586
*898 net587
*899 net588
*900 net589
*901 net59
*902 net590
*903 net591
*904 net592
*905 net593
*906 net594
*907 net595
*908 net596
*909 net597
*910 net598
*911 net599
*912 net6
*913 net60
*914 net600
*915 net601
*916 net602
*917 net603
*918 net604
*919 net605
*920 net606
*921 net607
*922 net608
*923 net609
*924 net61
*925 net610
*926 net611
*927 net612
*928 net613
*929 net614
*930 net615
*931 net616
*932 net617
*933 net618
*934 net619
*935 net62
*936 net620
*937 net621
*938 net622
*939 net623
*940 net624
*941 net625
*942 net626
*943 net627
*944 net628
*945 net629
*946 net63
*947 net630
*948 net631
*949 net632
*950 net633
*951 net634
*952 net635
*953 net636
*954 net637
*955 net638
*956 net639
*957 net64
*958 net640
*959 net641
*960 net642
*961 net643
*962 net644
*963 net645
*964 net646
*965 net647
*966 net648
*967 net649
*968 net65
*969 net650
*970 net651
*971 net652
*972 net653
*973 net654
*974 net655
*975 net656
*976 net657
*977 net658
*978 net659
*979 net66
*980 net660
*981 net661
*982 net662
*983 net663
*984 net664
*985 net665
*986 net666
*987 net667
*988 net668
*989 net669
*990 net67
*991 net670
*992 net671
*993 net672
*994 net673
*995 net674
*996 net675
*997 net676
*998 net677
*999 net678
*1000 net679
*1001 net68
*1002 net680
*1003 net681
*1004 net682
*1005 net683
*1006 net684
*1007 net685
*1008 net686
*1009 net687
*1010 net688
*1011 net689
*1012 net69
*1013 net690
*1014 net691
*1015 net692
*1016 net693
*1017 net694
*1018 net695
*1019 net696
*1020 net697
*1021 net698
*1022 net699
*1023 net7
*1024 net70
*1025 net700
*1026 net701
*1027 net702
*1028 net703
*1029 net704
*1030 net705
*1031 net706
*1032 net707
*1033 net708
*1034 net709
*1035 net71
*1036 net710
*1037 net711
*1038 net712
*1039 net713
*1040 net714
*1041 net715
*1042 net716
*1043 net717
*1044 net718
*1045 net719
*1046 net72
*1047 net720
*1048 net721
*1049 net722
*1050 net723
*1051 net724
*1052 net725
*1053 net726
*1054 net727
*1055 net728
*1056 net729
*1057 net73
*1058 net730
*1059 net731
*1060 net732
*1061 net733
*1062 net734
*1063 net735
*1064 net736
*1065 net737
*1066 net738
*1067 net739
*1068 net74
*1069 net740
*1070 net741
*1071 net742
*1072 net743
*1073 net744
*1074 net745
*1075 net746
*1076 net747
*1077 net748
*1078 net749
*1079 net75
*1080 net750
*1081 net751
*1082 net752
*1083 net753
*1084 net754
*1085 net755
*1086 net756
*1087 net757
*1088 net758
*1089 net759
*1090 net76
*1091 net760
*1092 net761
*1093 net762
*1094 net763
*1095 net764
*1096 net765
*1097 net766
*1098 net767
*1099 net768
*1100 net769
*1101 net77
*1102 net770
*1103 net771
*1104 net772
*1105 net773
*1106 net774
*1107 net775
*1108 net776
*1109 net777
*1110 net778
*1111 net779
*1112 net78
*1113 net780
*1114 net781
*1115 net782
*1116 net783
*1117 net784
*1118 net785
*1119 net786
*1120 net787
*1121 net788
*1122 net789
*1123 net79
*1124 net790
*1125 net791
*1126 net792
*1127 net793
*1128 net794
*1129 net795
*1130 net796
*1131 net797
*1132 net798
*1133 net799
*1134 net8
*1135 net80
*1136 net800
*1137 net801
*1138 net802
*1139 net803
*1140 net804
*1141 net805
*1142 net806
*1143 net807
*1144 net808
*1145 net809
*1146 net81
*1147 net810
*1148 net811
*1149 net812
*1150 net813
*1151 net814
*1152 net815
*1153 net816
*1154 net817
*1155 net818
*1156 net819
*1157 net82
*1158 net820
*1159 net821
*1160 net822
*1161 net823
*1162 net824
*1163 net825
*1164 net826
*1165 net827
*1166 net828
*1167 net829
*1168 net83
*1169 net830
*1170 net831
*1171 net832
*1172 net833
*1173 net834
*1174 net835
*1175 net836
*1176 net837
*1177 net838
*1178 net839
*1179 net84
*1180 net840
*1181 net841
*1182 net842
*1183 net843
*1184 net844
*1185 net845
*1186 net846
*1187 net847
*1188 net848
*1189 net849
*1190 net85
*1191 net850
*1192 net851
*1193 net852
*1194 net853
*1195 net854
*1196 net855
*1197 net856
*1198 net857
*1199 net858
*1200 net859
*1201 net86
*1202 net860
*1203 net861
*1204 net862
*1205 net863
*1206 net864
*1207 net865
*1208 net866
*1209 net867
*1210 net868
*1211 net869
*1212 net87
*1213 net870
*1214 net871
*1215 net872
*1216 net873
*1217 net874
*1218 net875
*1219 net876
*1220 net877
*1221 net878
*1222 net879
*1223 net88
*1224 net880
*1225 net881
*1226 net882
*1227 net883
*1228 net884
*1229 net885
*1230 net886
*1231 net887
*1232 net888
*1233 net889
*1234 net89
*1235 net890
*1236 net891
*1237 net892
*1238 net893
*1239 net894
*1240 net895
*1241 net896
*1242 net897
*1243 net898
*1244 net899
*1245 net9
*1246 net90
*1247 net900
*1248 net901
*1249 net902
*1250 net903
*1251 net904
*1252 net905
*1253 net906
*1254 net907
*1255 net908
*1256 net909
*1257 net91
*1258 net910
*1259 net911
*1260 net912
*1261 net913
*1262 net914
*1263 net915
*1264 net916
*1265 net917
*1266 net918
*1267 net919
*1268 net92
*1269 net920
*1270 net921
*1271 net922
*1272 net923
*1273 net924
*1274 net925
*1275 net926
*1276 net927
*1277 net93
*1278 net94
*1279 net95
*1280 net96
*1281 net97
*1282 net98
*1283 net99
*1284 ANTENNA_1
*1285 ANTENNA_c103_X
*1286 ANTENNA_c121_X
*1287 ANTENNA_c122_A
*1288 ANTENNA_c125_RESET_B
*1289 ANTENNA_c143_A3
*1290 ANTENNA_c176_X
*1291 ANTENNA_c180_A2
*1292 ANTENNA_c185_SET_B
*1293 ANTENNA_c210_A
*1294 ANTENNA_c222_Q
*1295 ANTENNA_c223_X
*1296 ANTENNA_c224_B
*1297 ANTENNA_c228_Q
*1298 ANTENNA_c229_B1
*1299 ANTENNA_c230_Q
*1300 ANTENNA_c296_B
*1301 ANTENNA_c305_A0
*1302 ANTENNA_c336_A
*1303 ANTENNA_c343_D
*1304 ANTENNA_c348_X
*1305 ANTENNA_c350_S0
*1306 ANTENNA_c353_SCD
*1307 ANTENNA_c471_Q
*1308 ANTENNA_c472_SCE
*1309 ANTENNA_c475_SCE
*1310 ANTENNA_c526_X
*1311 ANTENNA_c527_B
*1312 ANTENNA_c528_A
*1313 ANTENNA_c706_D
*1314 ANTENNA_c725_D
*1315 ANTENNA_clkbuf_0_clk_A
*1316 ANTENNA_clkbuf_0_clk_X
*1317 ANTENNA_clkbuf_2_0__f_clk_A
*1318 ANTENNA_clkbuf_2_0__f_clk_X
*1319 ANTENNA_clkbuf_2_1__f_clk_A
*1320 ANTENNA_clkbuf_2_1__f_clk_X
*1321 ANTENNA_clkbuf_2_2__f_clk_A
*1322 ANTENNA_clkbuf_2_2__f_clk_X
*1323 ANTENNA_clkbuf_2_3__f_clk_A
*1324 ANTENNA_clkbuf_2_3__f_clk_X
*1325 ANTENNA_clkbuf_leaf_0_clk_A
*1326 ANTENNA_clkbuf_leaf_10_clk_A
*1327 ANTENNA_clkbuf_leaf_11_clk_A
*1328 ANTENNA_clkbuf_leaf_12_clk_A
*1329 ANTENNA_clkbuf_leaf_13_clk_A
*1330 ANTENNA_clkbuf_leaf_14_clk_A
*1331 ANTENNA_clkbuf_leaf_15_clk_A
*1332 ANTENNA_clkbuf_leaf_16_clk_A
*1333 ANTENNA_clkbuf_leaf_17_clk_A
*1334 ANTENNA_clkbuf_leaf_18_clk_A
*1335 ANTENNA_clkbuf_leaf_19_clk_A
*1336 ANTENNA_clkbuf_leaf_1_clk_A
*1337 ANTENNA_clkbuf_leaf_20_clk_A
*1338 ANTENNA_clkbuf_leaf_21_clk_A
*1339 ANTENNA_clkbuf_leaf_22_clk_A
*1340 ANTENNA_clkbuf_leaf_23_clk_A
*1341 ANTENNA_clkbuf_leaf_24_clk_A
*1342 ANTENNA_clkbuf_leaf_25_clk_A
*1343 ANTENNA_clkbuf_leaf_27_clk_A
*1344 ANTENNA_clkbuf_leaf_28_clk_A
*1345 ANTENNA_clkbuf_leaf_29_clk_A
*1346 ANTENNA_clkbuf_leaf_2_clk_A
*1347 ANTENNA_clkbuf_leaf_30_clk_A
*1348 ANTENNA_clkbuf_leaf_31_clk_A
*1349 ANTENNA_clkbuf_leaf_32_clk_A
*1350 ANTENNA_clkbuf_leaf_33_clk_A
*1351 ANTENNA_clkbuf_leaf_34_clk_A
*1352 ANTENNA_clkbuf_leaf_35_clk_A
*1353 ANTENNA_clkbuf_leaf_36_clk_A
*1354 ANTENNA_clkbuf_leaf_37_clk_A
*1355 ANTENNA_clkbuf_leaf_38_clk_A
*1356 ANTENNA_clkbuf_leaf_39_clk_A
*1357 ANTENNA_clkbuf_leaf_3_clk_A
*1358 ANTENNA_clkbuf_leaf_40_clk_A
*1359 ANTENNA_clkbuf_leaf_41_clk_A
*1360 ANTENNA_clkbuf_leaf_4_clk_A
*1361 ANTENNA_clkbuf_leaf_5_clk_A
*1362 ANTENNA_clkbuf_leaf_6_clk_A
*1363 ANTENNA_clkbuf_leaf_7_clk_A
*1364 ANTENNA_clkbuf_leaf_8_clk_A
*1365 ANTENNA_clkbuf_leaf_9_clk_A
*1366 ANTENNA_hold101_A
*1367 ANTENNA_input10_A
*1368 ANTENNA_input11_A
*1369 ANTENNA_input12_A
*1370 ANTENNA_input13_A
*1371 ANTENNA_input14_A
*1372 ANTENNA_input15_A
*1373 ANTENNA_input16_A
*1374 ANTENNA_input17_A
*1375 ANTENNA_input18_A
*1376 ANTENNA_input19_A
*1377 ANTENNA_input1_A
*1378 ANTENNA_input20_A
*1379 ANTENNA_input21_A
*1380 ANTENNA_input22_A
*1381 ANTENNA_input23_A
*1382 ANTENNA_input24_A
*1383 ANTENNA_input25_A
*1384 ANTENNA_input26_A
*1385 ANTENNA_input27_A
*1386 ANTENNA_input28_A
*1387 ANTENNA_input29_A
*1388 ANTENNA_input2_A
*1389 ANTENNA_input30_A
*1390 ANTENNA_input31_A
*1391 ANTENNA_input32_A
*1392 ANTENNA_input33_A
*1393 ANTENNA_input34_A
*1394 ANTENNA_input35_A
*1395 ANTENNA_input36_A
*1396 ANTENNA_input37_A
*1397 ANTENNA_input38_A
*1398 ANTENNA_input39_A
*1399 ANTENNA_input3_A
*1400 ANTENNA_input40_A
*1401 ANTENNA_input41_A
*1402 ANTENNA_input42_A
*1403 ANTENNA_input43_A
*1404 ANTENNA_input44_A
*1405 ANTENNA_input45_A
*1406 ANTENNA_input46_A
*1407 ANTENNA_input47_A
*1408 ANTENNA_input48_A
*1409 ANTENNA_input49_A
*1410 ANTENNA_input49_X
*1411 ANTENNA_input4_A
*1412 ANTENNA_input50_A
*1413 ANTENNA_input51_A
*1414 ANTENNA_input52_A
*1415 ANTENNA_input53_A
*1416 ANTENNA_input54_A
*1417 ANTENNA_input55_A
*1418 ANTENNA_input56_A
*1419 ANTENNA_input57_A
*1420 ANTENNA_input58_A
*1421 ANTENNA_input59_A
*1422 ANTENNA_input5_A
*1423 ANTENNA_input60_A
*1424 ANTENNA_input61_A
*1425 ANTENNA_input62_A
*1426 ANTENNA_input63_A
*1427 ANTENNA_input64_A
*1428 ANTENNA_input65_A
*1429 ANTENNA_input66_A
*1430 ANTENNA_input68_A
*1431 ANTENNA_input69_A
*1432 ANTENNA_input6_A
*1433 ANTENNA_input70_A
*1434 ANTENNA_input71_A
*1435 ANTENNA_input72_A
*1436 ANTENNA_input73_A
*1437 ANTENNA_input74_A
*1438 ANTENNA_input75_A
*1439 ANTENNA_input76_A
*1440 ANTENNA_input77_A
*1441 ANTENNA_input78_A
*1442 ANTENNA_input79_A
*1443 ANTENNA_input7_A
*1444 ANTENNA_input7_X
*1445 ANTENNA_input80_A
*1446 ANTENNA_input81_A
*1447 ANTENNA_input82_A
*1448 ANTENNA_input83_A
*1449 ANTENNA_input84_A
*1450 ANTENNA_input85_A
*1451 ANTENNA_input86_A
*1452 ANTENNA_input87_A
*1453 ANTENNA_input88_A
*1454 ANTENNA_input89_A
*1455 ANTENNA_input8_A
*1456 ANTENNA_input90_A
*1457 ANTENNA_input91_A
*1458 ANTENNA_input92_A
*1459 ANTENNA_input93_A
*1460 ANTENNA_input94_A
*1461 ANTENNA_input95_A
*1462 ANTENNA_input96_A
*1463 ANTENNA_input97_A
*1464 ANTENNA_input98_A
*1465 ANTENNA_input99_A
*1466 ANTENNA_input9_A
*1467 ANTENNA_merge733_RESET_B
*1468 ANTENNA_merge744_DE
*1469 ANTENNA_output104_A
*1470 ANTENNA_output115_A
*1471 ANTENNA_output117_A
*1472 ANTENNA_output118_A
*1473 ANTENNA_output119_A
*1474 ANTENNA_output121_A
*1475 ANTENNA_output123_A
*1476 ANTENNA_s770_D
*1477 ANTENNA_s770_GATE_N
*1478 FILLER_0_0_104
*1479 FILLER_0_0_111
*1480 FILLER_0_0_118
*1481 FILLER_0_0_160
*1482 FILLER_0_0_167
*1483 FILLER_0_0_174
*1484 FILLER_0_0_181
*1485 FILLER_0_0_188
*1486 FILLER_0_0_19
*1487 FILLER_0_0_195
*1488 FILLER_0_0_202
*1489 FILLER_0_0_209
*1490 FILLER_0_0_216
*1491 FILLER_0_0_223
*1492 FILLER_0_0_230
*1493 FILLER_0_0_237
*1494 FILLER_0_0_244
*1495 FILLER_0_0_251
*1496 FILLER_0_0_258
*1497 FILLER_0_0_265
*1498 FILLER_0_0_27
*1499 FILLER_0_0_272
*1500 FILLER_0_0_279
*1501 FILLER_0_0_287
*1502 FILLER_0_0_29
*1503 FILLER_0_0_293
*1504 FILLER_0_0_300
*1505 FILLER_0_0_307
*1506 FILLER_0_0_314
*1507 FILLER_0_0_337
*1508 FILLER_0_0_41
*1509 FILLER_0_0_419
*1510 FILLER_0_0_427
*1511 FILLER_0_0_439
*1512 FILLER_0_0_447
*1513 FILLER_0_0_449
*1514 FILLER_0_0_457
*1515 FILLER_0_0_462
*1516 FILLER_0_0_474
*1517 FILLER_0_0_477
*1518 FILLER_0_0_489
*1519 FILLER_0_0_501
*1520 FILLER_0_0_505
*1521 FILLER_0_0_517
*1522 FILLER_0_0_529
*1523 FILLER_0_0_53
*1524 FILLER_0_0_533
*1525 FILLER_0_0_545
*1526 FILLER_0_0_557
*1527 FILLER_0_0_561
*1528 FILLER_0_0_57
*1529 FILLER_0_0_573
*1530 FILLER_0_0_585
*1531 FILLER_0_0_589
*1532 FILLER_0_0_601
*1533 FILLER_0_0_613
*1534 FILLER_0_0_617
*1535 FILLER_0_0_69
*1536 FILLER_0_0_7
*1537 FILLER_0_0_81
*1538 FILLER_0_0_91
*1539 FILLER_0_0_97
*1540 FILLER_0_100_109
*1541 FILLER_0_100_121
*1542 FILLER_0_100_133
*1543 FILLER_0_100_139
*1544 FILLER_0_100_141
*1545 FILLER_0_100_15
*1546 FILLER_0_100_153
*1547 FILLER_0_100_165
*1548 FILLER_0_100_177
*1549 FILLER_0_100_189
*1550 FILLER_0_100_195
*1551 FILLER_0_100_197
*1552 FILLER_0_100_209
*1553 FILLER_0_100_221
*1554 FILLER_0_100_233
*1555 FILLER_0_100_245
*1556 FILLER_0_100_251
*1557 FILLER_0_100_253
*1558 FILLER_0_100_265
*1559 FILLER_0_100_27
*1560 FILLER_0_100_277
*1561 FILLER_0_100_289
*1562 FILLER_0_100_29
*1563 FILLER_0_100_3
*1564 FILLER_0_100_301
*1565 FILLER_0_100_307
*1566 FILLER_0_100_309
*1567 FILLER_0_100_321
*1568 FILLER_0_100_333
*1569 FILLER_0_100_345
*1570 FILLER_0_100_357
*1571 FILLER_0_100_363
*1572 FILLER_0_100_365
*1573 FILLER_0_100_377
*1574 FILLER_0_100_389
*1575 FILLER_0_100_401
*1576 FILLER_0_100_41
*1577 FILLER_0_100_413
*1578 FILLER_0_100_419
*1579 FILLER_0_100_421
*1580 FILLER_0_100_433
*1581 FILLER_0_100_445
*1582 FILLER_0_100_457
*1583 FILLER_0_100_469
*1584 FILLER_0_100_475
*1585 FILLER_0_100_477
*1586 FILLER_0_100_489
*1587 FILLER_0_100_501
*1588 FILLER_0_100_513
*1589 FILLER_0_100_525
*1590 FILLER_0_100_53
*1591 FILLER_0_100_531
*1592 FILLER_0_100_533
*1593 FILLER_0_100_545
*1594 FILLER_0_100_557
*1595 FILLER_0_100_569
*1596 FILLER_0_100_581
*1597 FILLER_0_100_587
*1598 FILLER_0_100_589
*1599 FILLER_0_100_601
*1600 FILLER_0_100_613
*1601 FILLER_0_100_65
*1602 FILLER_0_100_77
*1603 FILLER_0_100_83
*1604 FILLER_0_100_85
*1605 FILLER_0_100_97
*1606 FILLER_0_101_109
*1607 FILLER_0_101_118
*1608 FILLER_0_101_125
*1609 FILLER_0_101_132
*1610 FILLER_0_101_139
*1611 FILLER_0_101_146
*1612 FILLER_0_101_15
*1613 FILLER_0_101_155
*1614 FILLER_0_101_167
*1615 FILLER_0_101_169
*1616 FILLER_0_101_181
*1617 FILLER_0_101_193
*1618 FILLER_0_101_197
*1619 FILLER_0_101_209
*1620 FILLER_0_101_221
*1621 FILLER_0_101_225
*1622 FILLER_0_101_237
*1623 FILLER_0_101_249
*1624 FILLER_0_101_253
*1625 FILLER_0_101_265
*1626 FILLER_0_101_27
*1627 FILLER_0_101_277
*1628 FILLER_0_101_281
*1629 FILLER_0_101_29
*1630 FILLER_0_101_293
*1631 FILLER_0_101_3
*1632 FILLER_0_101_305
*1633 FILLER_0_101_309
*1634 FILLER_0_101_321
*1635 FILLER_0_101_333
*1636 FILLER_0_101_337
*1637 FILLER_0_101_349
*1638 FILLER_0_101_361
*1639 FILLER_0_101_365
*1640 FILLER_0_101_377
*1641 FILLER_0_101_389
*1642 FILLER_0_101_393
*1643 FILLER_0_101_405
*1644 FILLER_0_101_41
*1645 FILLER_0_101_417
*1646 FILLER_0_101_421
*1647 FILLER_0_101_433
*1648 FILLER_0_101_445
*1649 FILLER_0_101_449
*1650 FILLER_0_101_461
*1651 FILLER_0_101_473
*1652 FILLER_0_101_477
*1653 FILLER_0_101_489
*1654 FILLER_0_101_501
*1655 FILLER_0_101_505
*1656 FILLER_0_101_517
*1657 FILLER_0_101_529
*1658 FILLER_0_101_53
*1659 FILLER_0_101_533
*1660 FILLER_0_101_545
*1661 FILLER_0_101_557
*1662 FILLER_0_101_561
*1663 FILLER_0_101_57
*1664 FILLER_0_101_573
*1665 FILLER_0_101_585
*1666 FILLER_0_101_589
*1667 FILLER_0_101_601
*1668 FILLER_0_101_613
*1669 FILLER_0_101_617
*1670 FILLER_0_101_69
*1671 FILLER_0_101_81
*1672 FILLER_0_101_85
*1673 FILLER_0_101_97
*1674 FILLER_0_10_109
*1675 FILLER_0_10_121
*1676 FILLER_0_10_133
*1677 FILLER_0_10_139
*1678 FILLER_0_10_141
*1679 FILLER_0_10_153
*1680 FILLER_0_10_165
*1681 FILLER_0_10_177
*1682 FILLER_0_10_189
*1683 FILLER_0_10_195
*1684 FILLER_0_10_197
*1685 FILLER_0_10_20
*1686 FILLER_0_10_209
*1687 FILLER_0_10_221
*1688 FILLER_0_10_233
*1689 FILLER_0_10_245
*1690 FILLER_0_10_251
*1691 FILLER_0_10_253
*1692 FILLER_0_10_265
*1693 FILLER_0_10_277
*1694 FILLER_0_10_289
*1695 FILLER_0_10_29
*1696 FILLER_0_10_301
*1697 FILLER_0_10_307
*1698 FILLER_0_10_309
*1699 FILLER_0_10_318
*1700 FILLER_0_10_330
*1701 FILLER_0_10_342
*1702 FILLER_0_10_354
*1703 FILLER_0_10_362
*1704 FILLER_0_10_365
*1705 FILLER_0_10_41
*1706 FILLER_0_10_442
*1707 FILLER_0_10_456
*1708 FILLER_0_10_468
*1709 FILLER_0_10_477
*1710 FILLER_0_10_481
*1711 FILLER_0_10_498
*1712 FILLER_0_10_510
*1713 FILLER_0_10_522
*1714 FILLER_0_10_53
*1715 FILLER_0_10_530
*1716 FILLER_0_10_533
*1717 FILLER_0_10_545
*1718 FILLER_0_10_557
*1719 FILLER_0_10_569
*1720 FILLER_0_10_581
*1721 FILLER_0_10_587
*1722 FILLER_0_10_589
*1723 FILLER_0_10_601
*1724 FILLER_0_10_613
*1725 FILLER_0_10_65
*1726 FILLER_0_10_77
*1727 FILLER_0_10_8
*1728 FILLER_0_10_83
*1729 FILLER_0_10_85
*1730 FILLER_0_10_97
*1731 FILLER_0_11_105
*1732 FILLER_0_11_111
*1733 FILLER_0_11_113
*1734 FILLER_0_11_125
*1735 FILLER_0_11_137
*1736 FILLER_0_11_149
*1737 FILLER_0_11_161
*1738 FILLER_0_11_167
*1739 FILLER_0_11_169
*1740 FILLER_0_11_181
*1741 FILLER_0_11_193
*1742 FILLER_0_11_20
*1743 FILLER_0_11_205
*1744 FILLER_0_11_217
*1745 FILLER_0_11_223
*1746 FILLER_0_11_225
*1747 FILLER_0_11_237
*1748 FILLER_0_11_249
*1749 FILLER_0_11_261
*1750 FILLER_0_11_273
*1751 FILLER_0_11_279
*1752 FILLER_0_11_281
*1753 FILLER_0_11_293
*1754 FILLER_0_11_302
*1755 FILLER_0_11_314
*1756 FILLER_0_11_32
*1757 FILLER_0_11_326
*1758 FILLER_0_11_334
*1759 FILLER_0_11_337
*1760 FILLER_0_11_349
*1761 FILLER_0_11_357
*1762 FILLER_0_11_379
*1763 FILLER_0_11_387
*1764 FILLER_0_11_414
*1765 FILLER_0_11_44
*1766 FILLER_0_11_449
*1767 FILLER_0_11_455
*1768 FILLER_0_11_485
*1769 FILLER_0_11_497
*1770 FILLER_0_11_503
*1771 FILLER_0_11_505
*1772 FILLER_0_11_517
*1773 FILLER_0_11_529
*1774 FILLER_0_11_541
*1775 FILLER_0_11_553
*1776 FILLER_0_11_559
*1777 FILLER_0_11_561
*1778 FILLER_0_11_57
*1779 FILLER_0_11_573
*1780 FILLER_0_11_585
*1781 FILLER_0_11_597
*1782 FILLER_0_11_609
*1783 FILLER_0_11_615
*1784 FILLER_0_11_617
*1785 FILLER_0_11_69
*1786 FILLER_0_11_8
*1787 FILLER_0_11_81
*1788 FILLER_0_11_93
*1789 FILLER_0_12_109
*1790 FILLER_0_12_121
*1791 FILLER_0_12_133
*1792 FILLER_0_12_139
*1793 FILLER_0_12_141
*1794 FILLER_0_12_153
*1795 FILLER_0_12_165
*1796 FILLER_0_12_177
*1797 FILLER_0_12_189
*1798 FILLER_0_12_195
*1799 FILLER_0_12_197
*1800 FILLER_0_12_20
*1801 FILLER_0_12_209
*1802 FILLER_0_12_221
*1803 FILLER_0_12_233
*1804 FILLER_0_12_245
*1805 FILLER_0_12_251
*1806 FILLER_0_12_253
*1807 FILLER_0_12_265
*1808 FILLER_0_12_277
*1809 FILLER_0_12_285
*1810 FILLER_0_12_29
*1811 FILLER_0_12_335