*SPEF "ieee 1481-1999"
*DESIGN "netlist_1"
*DATE "17:41:16 Tuesday August 06, 2024"
*VENDOR "The OpenROAD Project"
*PROGRAM "OpenROAD"
*VERSION "d423155d69de7f683a23f6916ead418a615ad4ad"
*DESIGN_FLOW "NAME_SCOPE LOCAL" "PIN_CAP NONE"
*DIVIDER /
*DELIMITER :
*BUS_DELIMITER []
*T_UNIT 1 NS
*C_UNIT 1 PF
*R_UNIT 1 OHM
*L_UNIT 1 HENRY

*NAME_MAP
*3 clk
*4 in0
*5 in1
*6 in10
*7 in11
*8 in12
*9 in13
*10 in14
*11 in15
*12 in16
*13 in17
*14 in18
*15 in19
*16 in2
*17 in20
*18 in21
*19 in22
*20 in23
*21 in24
*22 in25
*23 in26
*24 in27
*25 in28
*26 in29
*27 in3
*28 in30
*29 in31
*30 in32
*31 in33
*32 in34
*33 in35
*34 in36
*35 in37
*36 in38
*37 in39
*38 in4
*39 in40
*40 in41
*41 in42
*42 in43
*43 in44
*44 in45
*45 in46
*46 in47
*47 in48
*48 in49
*49 in5
*50 in50
*51 in51
*52 in52
*53 in53
*54 in54
*55 in55
*56 in56
*57 in57
*58 in58
*59 in59
*60 in6
*61 in60
*62 in61
*63 in7
*64 in8
*65 in9
*66 out0
*67 out1
*68 out10
*69 out11
*70 out12
*71 out13
*72 out14
*73 out15
*74 out16
*75 out17
*76 out18
*77 out19
*78 out2
*79 out20
*80 out21
*81 out22
*82 out23
*83 out24
*84 out25
*85 out26
*86 out27
*87 out28
*88 out29
*89 out3
*90 out30
*91 out31
*92 out32
*93 out33
*94 out34
*95 out35
*96 out36
*97 out37
*98 out38
*99 out39
*100 out4
*101 out40
*102 out41
*103 out42
*104 out43
*105 out44
*106 out45
*107 out46
*108 out47
*109 out48
*110 out49
*111 out5
*112 out50
*113 out51
*114 out52
*115 out53
*116 out54
*117 out55
*118 out56
*119 out57
*120 out58
*121 out59
*122 out6
*123 out60
*124 out61
*125 out7
*126 out8
*127 out9
*128 rst
*129 clknet_0_clk
*130 clknet_0_net103
*131 clknet_0_net107
*132 clknet_0_net112
*133 clknet_0_net113
*134 clknet_0_net114
*135 clknet_0_net116
*136 clknet_0_net117
*137 clknet_0_net118
*138 clknet_0_net119
*139 clknet_0_net120
*140 clknet_0_net121
*141 clknet_0_net122
*142 clknet_0_net124
*143 clknet_0_net125
*144 clknet_0_net126
*145 clknet_0_net127
*146 clknet_0_net129
*147 clknet_0_net132
*148 clknet_0_net134
*149 clknet_0_net136
*150 clknet_0_net137
*151 clknet_0_net139
*152 clknet_0_net140
*153 clknet_0_net142
*154 clknet_0_net143
*155 clknet_0_net144
*156 clknet_0_net149
*157 clknet_0_net170
*158 clknet_0_net230
*159 clknet_0_net232
*160 clknet_0_net233
*161 clknet_0_net237
*162 clknet_0_net239
*163 clknet_0_net241
*164 clknet_0_net249
*165 clknet_0_net251
*166 clknet_0_net263
*167 clknet_0_net266
*168 clknet_0_net268
*169 clknet_0_net269
*170 clknet_0_net270
*171 clknet_0_net282
*172 clknet_0_net290
*173 clknet_0_net292
*174 clknet_0_net350
*175 clknet_0_net354
*176 clknet_0_net357
*177 clknet_0_net360
*178 clknet_0_net366
*179 clknet_0_net376
*180 clknet_0_net382
*181 clknet_0_net383
*182 clknet_0_net386
*183 clknet_0_net387
*184 clknet_0_net412
*185 clknet_0_net437
*186 clknet_0_net438
*187 clknet_0_net439
*188 clknet_0_net440
*189 clknet_0_net443
*190 clknet_0_net448
*191 clknet_0_net455
*192 clknet_0_net457
*193 clknet_0_net463
*194 clknet_0_net465
*195 clknet_0_net468
*196 clknet_0_net469
*197 clknet_0_net471
*198 clknet_0_net472
*199 clknet_0_net478
*200 clknet_0_net485
*201 clknet_0_net489
*202 clknet_0_net493
*203 clknet_0_net515
*204 clknet_0_net545
*205 clknet_0_net548
*206 clknet_0_net550
*207 clknet_0_net551
*208 clknet_0_net560
*209 clknet_0_net572
*210 clknet_0_net577
*211 clknet_0_net582
*212 clknet_0_net592
*213 clknet_0_net596
*214 clknet_0_net597
*215 clknet_0_net617
*216 clknet_0_net619
*217 clknet_0_net693
*218 clknet_0_net694
*219 clknet_0_net695
*220 clknet_0_net715
*221 clknet_0_net716
*222 clknet_0_net733
*223 clknet_0_net734
*224 clknet_0_net735
*225 clknet_0_net750
*226 clknet_0_net751
*227 clknet_0_net752
*228 clknet_0_net863
*229 clknet_0_net866
*230 clknet_0_net884
*231 clknet_0_net890
*232 clknet_1_0__leaf_net103
*233 clknet_1_0__leaf_net107
*234 clknet_1_0__leaf_net112
*235 clknet_1_0__leaf_net113
*236 clknet_1_0__leaf_net114
*237 clknet_1_0__leaf_net116
*238 clknet_1_0__leaf_net117
*239 clknet_1_0__leaf_net118
*240 clknet_1_0__leaf_net119
*241 clknet_1_0__leaf_net120
*242 clknet_1_0__leaf_net121
*243 clknet_1_0__leaf_net122
*244 clknet_1_0__leaf_net124
*245 clknet_1_0__leaf_net125
*246 clknet_1_0__leaf_net126
*247 clknet_1_0__leaf_net127
*248 clknet_1_0__leaf_net129
*249 clknet_1_0__leaf_net132
*250 clknet_1_0__leaf_net134
*251 clknet_1_0__leaf_net136
*252 clknet_1_0__leaf_net137
*253 clknet_1_0__leaf_net139
*254 clknet_1_0__leaf_net140
*255 clknet_1_0__leaf_net142
*256 clknet_1_0__leaf_net143
*257 clknet_1_0__leaf_net144
*258 clknet_1_0__leaf_net149
*259 clknet_1_0__leaf_net170
*260 clknet_1_0__leaf_net230
*261 clknet_1_0__leaf_net232
*262 clknet_1_0__leaf_net233
*263 clknet_1_0__leaf_net237
*264 clknet_1_0__leaf_net239
*265 clknet_1_0__leaf_net241
*266 clknet_1_0__leaf_net249
*267 clknet_1_0__leaf_net251
*268 clknet_1_0__leaf_net263
*269 clknet_1_0__leaf_net266
*270 clknet_1_0__leaf_net268
*271 clknet_1_0__leaf_net269
*272 clknet_1_0__leaf_net270
*273 clknet_1_0__leaf_net282
*274 clknet_1_0__leaf_net290
*275 clknet_1_0__leaf_net292
*276 clknet_1_0__leaf_net350
*277 clknet_1_0__leaf_net354
*278 clknet_1_0__leaf_net357
*279 clknet_1_0__leaf_net360
*280 clknet_1_0__leaf_net366
*281 clknet_1_0__leaf_net376
*282 clknet_1_0__leaf_net382
*283 clknet_1_0__leaf_net383
*284 clknet_1_0__leaf_net386
*285 clknet_1_0__leaf_net387
*286 clknet_1_0__leaf_net412
*287 clknet_1_0__leaf_net437
*288 clknet_1_0__leaf_net438
*289 clknet_1_0__leaf_net439
*290 clknet_1_0__leaf_net440
*291 clknet_1_0__leaf_net443
*292 clknet_1_0__leaf_net448
*293 clknet_1_0__leaf_net455
*294 clknet_1_0__leaf_net457
*295 clknet_1_0__leaf_net463
*296 clknet_1_0__leaf_net465
*297 clknet_1_0__leaf_net468
*298 clknet_1_0__leaf_net469
*299 clknet_1_0__leaf_net471
*300 clknet_1_0__leaf_net472
*301 clknet_1_0__leaf_net478
*302 clknet_1_0__leaf_net485
*303 clknet_1_0__leaf_net489
*304 clknet_1_0__leaf_net493
*305 clknet_1_0__leaf_net515
*306 clknet_1_0__leaf_net545
*307 clknet_1_0__leaf_net548
*308 clknet_1_0__leaf_net550
*309 clknet_1_0__leaf_net551
*310 clknet_1_0__leaf_net560
*311 clknet_1_0__leaf_net572
*312 clknet_1_0__leaf_net577
*313 clknet_1_0__leaf_net582
*314 clknet_1_0__leaf_net592
*315 clknet_1_0__leaf_net596
*316 clknet_1_0__leaf_net597
*317 clknet_1_0__leaf_net617
*318 clknet_1_0__leaf_net619
*319 clknet_1_0__leaf_net693
*320 clknet_1_0__leaf_net694
*321 clknet_1_0__leaf_net695
*322 clknet_1_0__leaf_net715
*323 clknet_1_0__leaf_net716
*324 clknet_1_0__leaf_net733
*325 clknet_1_0__leaf_net734
*326 clknet_1_0__leaf_net735
*327 clknet_1_0__leaf_net750
*328 clknet_1_0__leaf_net751
*329 clknet_1_0__leaf_net752
*330 clknet_1_0__leaf_net863
*331 clknet_1_0__leaf_net866
*332 clknet_1_0__leaf_net884
*333 clknet_1_0__leaf_net890
*334 clknet_1_1__leaf_net103
*335 clknet_1_1__leaf_net107
*336 clknet_1_1__leaf_net112
*337 clknet_1_1__leaf_net113
*338 clknet_1_1__leaf_net114
*339 clknet_1_1__leaf_net116
*340 clknet_1_1__leaf_net117
*341 clknet_1_1__leaf_net118
*342 clknet_1_1__leaf_net119
*343 clknet_1_1__leaf_net120
*344 clknet_1_1__leaf_net121
*345 clknet_1_1__leaf_net122
*346 clknet_1_1__leaf_net124
*347 clknet_1_1__leaf_net125
*348 clknet_1_1__leaf_net126
*349 clknet_1_1__leaf_net127
*350 clknet_1_1__leaf_net129
*351 clknet_1_1__leaf_net132
*352 clknet_1_1__leaf_net134
*353 clknet_1_1__leaf_net136
*354 clknet_1_1__leaf_net137
*355 clknet_1_1__leaf_net139
*356 clknet_1_1__leaf_net140
*357 clknet_1_1__leaf_net142
*358 clknet_1_1__leaf_net143
*359 clknet_1_1__leaf_net144
*360 clknet_1_1__leaf_net149
*361 clknet_1_1__leaf_net170
*362 clknet_1_1__leaf_net230
*363 clknet_1_1__leaf_net232
*364 clknet_1_1__leaf_net233
*365 clknet_1_1__leaf_net237
*366 clknet_1_1__leaf_net239
*367 clknet_1_1__leaf_net241
*368 clknet_1_1__leaf_net249
*369 clknet_1_1__leaf_net251
*370 clknet_1_1__leaf_net263
*371 clknet_1_1__leaf_net266
*372 clknet_1_1__leaf_net268
*373 clknet_1_1__leaf_net269
*374 clknet_1_1__leaf_net270
*375 clknet_1_1__leaf_net282
*376 clknet_1_1__leaf_net290
*377 clknet_1_1__leaf_net292
*378 clknet_1_1__leaf_net350
*379 clknet_1_1__leaf_net354
*380 clknet_1_1__leaf_net357
*381 clknet_1_1__leaf_net360
*382 clknet_1_1__leaf_net366
*383 clknet_1_1__leaf_net376
*384 clknet_1_1__leaf_net382
*385 clknet_1_1__leaf_net383
*386 clknet_1_1__leaf_net386
*387 clknet_1_1__leaf_net387
*388 clknet_1_1__leaf_net412
*389 clknet_1_1__leaf_net437
*390 clknet_1_1__leaf_net438
*391 clknet_1_1__leaf_net439
*392 clknet_1_1__leaf_net440
*393 clknet_1_1__leaf_net443
*394 clknet_1_1__leaf_net448
*395 clknet_1_1__leaf_net455
*396 clknet_1_1__leaf_net457
*397 clknet_1_1__leaf_net463
*398 clknet_1_1__leaf_net465
*399 clknet_1_1__leaf_net468
*400 clknet_1_1__leaf_net469
*401 clknet_1_1__leaf_net471
*402 clknet_1_1__leaf_net472
*403 clknet_1_1__leaf_net478
*404 clknet_1_1__leaf_net485
*405 clknet_1_1__leaf_net489
*406 clknet_1_1__leaf_net493
*407 clknet_1_1__leaf_net515
*408 clknet_1_1__leaf_net545
*409 clknet_1_1__leaf_net548
*410 clknet_1_1__leaf_net550
*411 clknet_1_1__leaf_net551
*412 clknet_1_1__leaf_net560
*413 clknet_1_1__leaf_net572
*414 clknet_1_1__leaf_net577
*415 clknet_1_1__leaf_net582
*416 clknet_1_1__leaf_net592
*417 clknet_1_1__leaf_net596
*418 clknet_1_1__leaf_net597
*419 clknet_1_1__leaf_net617
*420 clknet_1_1__leaf_net619
*421 clknet_1_1__leaf_net693
*422 clknet_1_1__leaf_net694
*423 clknet_1_1__leaf_net695
*424 clknet_1_1__leaf_net715
*425 clknet_1_1__leaf_net716
*426 clknet_1_1__leaf_net733
*427 clknet_1_1__leaf_net734
*428 clknet_1_1__leaf_net735
*429 clknet_1_1__leaf_net750
*430 clknet_1_1__leaf_net751
*431 clknet_1_1__leaf_net752
*432 clknet_1_1__leaf_net863
*433 clknet_1_1__leaf_net866
*434 clknet_1_1__leaf_net884
*435 clknet_1_1__leaf_net890
*436 clknet_4_0_0_clk
*437 clknet_4_10_0_clk
*438 clknet_4_11_0_clk
*439 clknet_4_12_0_clk
*440 clknet_4_13_0_clk
*441 clknet_4_14_0_clk
*442 clknet_4_15_0_clk
*443 clknet_4_1_0_clk
*444 clknet_4_2_0_clk
*445 clknet_4_3_0_clk
*446 clknet_4_4_0_clk
*447 clknet_4_5_0_clk
*448 clknet_4_6_0_clk
*449 clknet_4_7_0_clk
*450 clknet_4_8_0_clk
*451 clknet_4_9_0_clk
*452 net0
*453 net1
*454 net10
*455 net100
*456 net1000
*457 net1001
*458 net1002
*459 net1003
*460 net1004
*461 net1006
*462 net1007
*463 net1008
*464 net1009
*465 net101
*466 net1010
*467 net1011
*468 net1012
*469 net1013
*470 net102
*471 net103
*472 net104
*473 net105
*474 net106
*475 net107
*476 net108
*477 net109
*478 net11
*479 net110
*480 net111
*481 net112
*482 net113
*483 net114
*484 net115
*485 net116
*486 net117
*487 net118
*488 net119
*489 net12
*490 net120
*491 net121
*492 net122
*493 net123
*494 net124
*495 net125
*496 net126
*497 net127
*498 net128
*499 net129
*500 net13
*501 net130
*502 net131
*503 net132
*504 net133
*505 net134
*506 net135
*507 net136
*508 net137
*509 net138
*510 net139
*511 net14
*512 net140
*513 net141
*514 net142
*515 net143
*516 net144
*517 net145
*518 net146
*519 net147
*520 net148
*521 net149
*522 net15
*523 net150
*524 net151
*525 net152
*526 net153
*527 net154
*528 net155
*529 net156
*530 net157
*531 net158
*532 net159
*533 net16
*534 net160
*535 net161
*536 net162
*537 net163
*538 net164
*539 net165
*540 net166
*541 net167
*542 net168
*543 net169
*544 net17
*545 net170
*546 net171
*547 net172
*548 net173
*549 net174
*550 net175
*551 net176
*552 net177
*553 net178
*554 net179
*555 net18
*556 net180
*557 net181
*558 net182
*559 net183
*560 net184
*561 net185
*562 net186
*563 net187
*564 net188
*565 net189
*566 net19
*567 net190
*568 net191
*569 net192
*570 net193
*571 net194
*572 net195
*573 net196
*574 net197
*575 net198
*576 net199
*577 net2
*578 net20
*579 net200
*580 net201
*581 net202
*582 net203
*583 net204
*584 net205
*585 net206
*586 net207
*587 net208
*588 net209
*589 net21
*590 net210
*591 net211
*592 net212
*593 net213
*594 net214
*595 net215
*596 net216
*597 net217
*598 net218
*599 net219
*600 net22
*601 net220
*602 net221
*603 net222
*604 net223
*605 net224
*606 net225
*607 net226
*608 net227
*609 net228
*610 net229
*611 net23
*612 net230
*613 net231
*614 net232
*615 net233
*616 net234
*617 net235
*618 net236
*619 net237
*620 net238
*621 net239
*622 net24
*623 net240
*624 net241
*625 net242
*626 net243
*627 net244
*628 net245
*629 net246
*630 net247
*631 net248
*632 net249
*633 net25
*634 net250
*635 net251
*636 net252
*637 net253
*638 net254
*639 net255
*640 net256
*641 net257
*642 net258
*643 net259
*644 net26
*645 net260
*646 net261
*647 net262
*648 net263
*649 net264
*650 net265
*651 net266
*652 net267
*653 net268
*654 net269
*655 net27
*656 net270
*657 net271
*658 net272
*659 net273
*660 net274
*661 net275
*662 net276
*663 net277
*664 net278
*665 net279
*666 net28
*667 net280
*668 net281
*669 net282
*670 net283
*671 net284
*672 net285
*673 net286
*674 net287
*675 net288
*676 net289
*677 net29
*678 net290
*679 net291
*680 net292
*681 net293
*682 net294
*683 net295
*684 net296
*685 net297
*686 net298
*687 net299
*688 net3
*689 net30
*690 net300
*691 net301
*692 net302
*693 net303
*694 net304
*695 net305
*696 net306
*697 net307
*698 net308
*699 net309
*700 net31
*701 net310
*702 net311
*703 net312
*704 net313
*705 net314
*706 net315
*707 net316
*708 net317
*709 net318
*710 net319
*711 net32
*712 net320
*713 net321
*714 net322
*715 net323
*716 net324
*717 net325
*718 net326
*719 net327
*720 net328
*721 net329
*722 net33
*723 net330
*724 net331
*725 net332
*726 net333
*727 net334
*728 net335
*729 net336
*730 net337
*731 net338
*732 net339
*733 net34
*734 net340
*735 net341
*736 net342
*737 net343
*738 net344
*739 net345
*740 net346
*741 net347
*742 net348
*743 net349
*744 net35
*745 net350
*746 net351
*747 net352
*748 net353
*749 net354
*750 net355
*751 net356
*752 net357
*753 net358
*754 net359
*755 net36
*756 net360
*757 net361
*758 net362
*759 net363
*760 net364
*761 net365
*762 net366
*763 net367
*764 net368
*765 net369
*766 net37
*767 net370
*768 net371
*769 net372
*770 net373
*771 net374
*772 net375
*773 net376
*774 net377
*775 net378
*776 net379
*777 net38
*778 net380
*779 net381
*780 net382
*781 net383
*782 net384
*783 net385
*784 net386
*785 net387
*786 net388
*787 net389
*788 net39
*789 net390
*790 net391
*791 net392
*792 net393
*793 net394
*794 net395
*795 net396
*796 net397
*797 net398
*798 net399
*799 net4
*800 net40
*801 net400
*802 net401
*803 net402
*804 net403
*805 net404
*806 net405
*807 net406
*808 net407
*809 net408
*810 net409
*811 net41
*812 net410
*813 net411
*814 net412
*815 net413
*816 net414
*817 net415
*818 net416
*819 net417
*820 net418
*821 net419
*822 net42
*823 net420
*824 net421
*825 net422
*826 net423
*827 net424
*828 net425
*829 net426
*830 net427
*831 net428
*832 net429
*833 net43
*834 net430
*835 net431
*836 net432
*837 net433
*838 net434
*839 net435
*840 net436
*841 net437
*842 net438
*843 net439
*844 net44
*845 net440
*846 net441
*847 net442
*848 net443
*849 net444
*850 net445
*851 net446
*852 net447
*853 net448
*854 net449
*855 net45
*856 net450
*857 net451
*858 net452
*859 net453
*860 net454
*861 net455
*862 net456
*863 net457
*864 net458
*865 net459
*866 net46
*867 net460
*868 net461
*869 net462
*870 net463
*871 net464
*872 net465
*873 net466
*874 net467
*875 net468
*876 net469
*877 net47
*878 net470
*879 net471
*880 net472
*881 net473
*882 net474
*883 net475
*884 net476
*885 net477
*886 net478
*887 net479
*888 net48
*889 net480
*890 net481
*891 net482
*892 net483
*893 net484
*894 net485
*895 net486
*896 net487
*897 net488
*898 net489
*899 net49
*900 net490
*901 net491
*902 net492
*903 net493
*904 net494
*905 net495
*906 net496
*907 net497
*908 net498
*909 net499
*910 net5
*911 net50
*912 net500
*913 net501
*914 net502
*915 net503
*916 net504
*917 net505
*918 net506
*919 net507
*920 net508
*921 net509
*922 net51
*923 net510
*924 net511
*925 net512
*926 net513
*927 net514
*928 net515
*929 net516
*930 net517
*931 net518
*932 net519
*933 net52
*934 net520
*935 net521
*936 net522
*937 net523
*938 net524
*939 net525
*940 net526
*941 net527
*942 net528
*943 net529
*944 net53
*945 net530
*946 net531
*947 net532
*948 net533
*949 net534
*950 net535
*951 net536
*952 net537
*953 net538
*954 net539
*955 net54
*956 net540
*957 net541
*958 net542
*959 net543
*960 net544
*961 net545
*962 net546
*963 net547
*964 net548
*965 net549
*966 net55
*967 net550
*968 net551
*969 net552
*970 net553
*971 net554
*972 net555
*973 net556
*974 net557
*975 net558
*976 net559
*977 net56
*978 net560
*979 net561
*980 net562
*981 net563
*982 net564
*983 net565
*984 net566
*985 net567
*986 net568
*987 net569
*988 net57
*989 net570
*990 net571
*991 net572
*992 net573
*993 net574
*994 net575
*995 net576
*996 net577
*997 net578
*998 net579
*999 net58
*1000 net580
*1001 net581
*1002 net582
*1003 net583
*1004 net584
*1005 net585
*1006 net586
*1007 net587
*1008 net588
*1009 net589
*1010 net59
*1011 net590
*1012 net591
*1013 net592
*1014 net593
*1015 net594
*1016 net595
*1017 net596
*1018 net597
*1019 net598
*1020 net599
*1021 net6
*1022 net60
*1023 net600
*1024 net601
*1025 net602
*1026 net603
*1027 net604
*1028 net605
*1029 net606
*1030 net607
*1031 net608
*1032 net609
*1033 net61
*1034 net610
*1035 net611
*1036 net612
*1037 net613
*1038 net614
*1039 net615
*1040 net616
*1041 net617
*1042 net618
*1043 net619
*1044 net62
*1045 net620
*1046 net621
*1047 net622
*1048 net623
*1049 net624
*1050 net625
*1051 net626
*1052 net627
*1053 net628
*1054 net629
*1055 net63
*1056 net630
*1057 net631
*1058 net632
*1059 net633
*1060 net634
*1061 net635
*1062 net636
*1063 net637
*1064 net638
*1065 net639
*1066 net64
*1067 net640
*1068 net641
*1069 net642
*1070 net643
*1071 net644
*1072 net645
*1073 net646
*1074 net647
*1075 net648
*1076 net649
*1077 net65
*1078 net650
*1079 net651
*1080 net652
*1081 net653
*1082 net654
*1083 net655
*1084 net656
*1085 net657
*1086 net658
*1087 net659
*1088 net66
*1089 net660
*1090 net661
*1091 net662
*1092 net663
*1093 net664
*1094 net665
*1095 net666
*1096 net667
*1097 net668
*1098 net669
*1099 net67
*1100 net670
*1101 net671
*1102 net672
*1103 net673
*1104 net674
*1105 net675
*1106 net676
*1107 net677
*1108 net678
*1109 net679
*1110 net68
*1111 net680
*1112 net681
*1113 net682
*1114 net683
*1115 net684
*1116 net685
*1117 net686
*1118 net687
*1119 net688
*1120 net689
*1121 net69
*1122 net690
*1123 net691
*1124 net692
*1125 net693
*1126 net694
*1127 net695
*1128 net696
*1129 net697
*1130 net698
*1131 net699
*1132 net7
*1133 net70
*1134 net700
*1135 net701
*1136 net702
*1137 net703
*1138 net704
*1139 net705
*1140 net706
*1141 net707
*1142 net708
*1143 net709
*1144 net71
*1145 net710
*1146 net711
*1147 net712
*1148 net713
*1149 net714
*1150 net715
*1151 net716
*1152 net717
*1153 net718
*1154 net719
*1155 net72
*1156 net720
*1157 net721
*1158 net722
*1159 net723
*1160 net724
*1161 net725
*1162 net726
*1163 net727
*1164 net728
*1165 net729
*1166 net73
*1167 net730
*1168 net731
*1169 net732
*1170 net733
*1171 net734
*1172 net735
*1173 net736
*1174 net737
*1175 net738
*1176 net739
*1177 net74
*1178 net740
*1179 net741
*1180 net742
*1181 net743
*1182 net744
*1183 net745
*1184 net746
*1185 net747
*1186 net748
*1187 net749
*1188 net75
*1189 net750
*1190 net751
*1191 net752
*1192 net753
*1193 net754
*1194 net755
*1195 net756
*1196 net757
*1197 net758
*1198 net759
*1199 net76
*1200 net760
*1201 net761
*1202 net762
*1203 net763
*1204 net764
*1205 net765
*1206 net766
*1207 net767
*1208 net768
*1209 net769
*1210 net77
*1211 net770
*1212 net771
*1213 net772
*1214 net773
*1215 net774
*1216 net775
*1217 net776
*1218 net777
*1219 net778
*1220 net779
*1221 net78
*1222 net780
*1223 net781
*1224 net782
*1225 net783
*1226 net784
*1227 net785
*1228 net786
*1229 net787
*1230 net788
*1231 net789
*1232 net79
*1233 net790
*1234 net791
*1235 net792
*1236 net793
*1237 net794
*1238 net795
*1239 net796
*1240 net797
*1241 net798
*1242 net799
*1243 net8
*1244 net80
*1245 net800
*1246 net801
*1247 net802
*1248 net803
*1249 net804
*1250 net805
*1251 net806
*1252 net807
*1253 net808
*1254 net809
*1255 net81
*1256 net810
*1257 net811
*1258 net812
*1259 net813
*1260 net814
*1261 net815
*1262 net816
*1263 net817
*1264 net818
*1265 net819
*1266 net82
*1267 net820
*1268 net821
*1269 net822
*1270 net823
*1271 net824
*1272 net825
*1273 net826
*1274 net827
*1275 net828
*1276 net829
*1277 net83
*1278 net830
*1279 net831
*1280 net832
*1281 net833
*1282 net834
*1283 net835
*1284 net836
*1285 net837
*1286 net838
*1287 net839
*1288 net84
*1289 net840
*1290 net841
*1291 net842
*1292 net843
*1293 net844
*1294 net845
*1295 net846
*1296 net847
*1297 net848
*1298 net849
*1299 net85
*1300 net850
*1301 net851
*1302 net852
*1303 net853
*1304 net854
*1305 net855
*1306 net856
*1307 net857
*1308 net858
*1309 net859
*1310 net86
*1311 net860
*1312 net861
*1313 net862
*1314 net863
*1315 net864
*1316 net865
*1317 net866
*1318 net867
*1319 net868
*1320 net869
*1321 net87
*1322 net870
*1323 net871
*1324 net872
*1325 net873
*1326 net874
*1327 net875
*1328 net876
*1329 net877
*1330 net878
*1331 net879
*1332 net88
*1333 net880
*1334 net881
*1335 net882
*1336 net883
*1337 net884
*1338 net885
*1339 net886
*1340 net887
*1341 net888
*1342 net889
*1343 net89
*1344 net890
*1345 net891
*1346 net892
*1347 net893
*1348 net894
*1349 net895
*1350 net896
*1351 net897
*1352 net898
*1353 net899
*1354 net9
*1355 net90
*1356 net900
*1357 net901
*1358 net902
*1359 net903
*1360 net904
*1361 net905
*1362 net906
*1363 net907
*1364 net908
*1365 net909
*1366 net91
*1367 net910
*1368 net911
*1369 net912
*1370 net913
*1371 net914
*1372 net915
*1373 net916
*1374 net917
*1375 net918
*1376 net919
*1377 net92
*1378 net920
*1379 net921
*1380 net922
*1381 net923
*1382 net924
*1383 net925
*1384 net926
*1385 net927
*1386 net928
*1387 net929
*1388 net93
*1389 net930
*1390 net931
*1391 net932
*1392 net933
*1393 net934
*1394 net935
*1395 net936
*1396 net937
*1397 net938
*1398 net939
*1399 net94
*1400 net940
*1401 net941
*1402 net942
*1403 net943
*1404 net944
*1405 net945
*1406 net946
*1407 net947
*1408 net948
*1409 net949
*1410 net95
*1411 net950
*1412 net951
*1413 net952
*1414 net953
*1415 net954
*1416 net955
*1417 net956
*1418 net957
*1419 net958
*1420 net959
*1421 net96
*1422 net960
*1423 net961
*1424 net962
*1425 net963
*1426 net964
*1427 net965
*1428 net966
*1429 net967
*1430 net968
*1431 net969
*1432 net97
*1433 net970
*1434 net971
*1435 net972
*1436 net973
*1437 net974
*1438 net975
*1439 net976
*1440 net977
*1441 net978
*1442 net979
*1443 net98
*1444 net980
*1445 net981
*1446 net982
*1447 net983
*1448 net984
*1449 net985
*1450 net986
*1451 net987
*1452 net988
*1453 net989
*1454 net99
*1455 net990
*1456 net991
*1457 net992
*1458 net993
*1459 net994
*1460 net995
*1461 net996
*1462 net997
*1463 net998
*1464 net999
*1465 ANTENNA_c100_Y
*1466 ANTENNA_c101_X
*1467 ANTENNA_c102_A
*1468 ANTENNA_c102_B
*1469 ANTENNA_c102_Y
*1470 ANTENNA_c103_B1_N
*1471 ANTENNA_c104_CLK
*1472 ANTENNA_c104_D
*1473 ANTENNA_c104_Q
*1474 ANTENNA_c104_SCD
*1475 ANTENNA_c104_SCE
*1476 ANTENNA_c105_Y
*1477 ANTENNA_c106_A1
*1478 ANTENNA_c108_A2
*1479 ANTENNA_c108_B1_N
*1480 ANTENNA_c109_A2
*1481 ANTENNA_c109_S1
*1482 ANTENNA_c110_CLK
*1483 ANTENNA_c110_D
*1484 ANTENNA_c110_Q_N
*1485 ANTENNA_c110_SCD
*1486 ANTENNA_c110_SCE
*1487 ANTENNA_c111_A1
*1488 ANTENNA_c111_B1_N
*1489 ANTENNA_c112_A1
*1490 ANTENNA_c112_A2
*1491 ANTENNA_c115_A
*1492 ANTENNA_c116_B
*1493 ANTENNA_c118_B
*1494 ANTENNA_c119_B
*1495 ANTENNA_c120_B
*1496 ANTENNA_c121_A3
*1497 ANTENNA_c121_B1
*1498 ANTENNA_c122_A3
*1499 ANTENNA_c124_A2
*1500 ANTENNA_c124_A4
*1501 ANTENNA_c124_B1
*1502 ANTENNA_c125_B
*1503 ANTENNA_c128_A1
*1504 ANTENNA_c129_A3
*1505 ANTENNA_c129_S0
*1506 ANTENNA_c130_A1
*1507 ANTENNA_c132_A
*1508 ANTENNA_c132_B
*1509 ANTENNA_c132_Y
*1510 ANTENNA_c133_A
*1511 ANTENNA_c133_B
*1512 ANTENNA_c133_Y
*1513 ANTENNA_c134_A
*1514 ANTENNA_c134_B
*1515 ANTENNA_c135_A
*1516 ANTENNA_c135_B
*1517 ANTENNA_c136_B
*1518 ANTENNA_c138_A
*1519 ANTENNA_c139_A
*1520 ANTENNA_c139_B
*1521 ANTENNA_c139_Y
*1522 ANTENNA_c140_A
*1523 ANTENNA_c141_A1
*1524 ANTENNA_c141_A2
*1525 ANTENNA_c141_X
*1526 ANTENNA_c142_B
*1527 ANTENNA_c143_A1
*1528 ANTENNA_c143_X
*1529 ANTENNA_c144_A1
*1530 ANTENNA_c144_A2
*1531 ANTENNA_c145_A1
*1532 ANTENNA_c146_A1
*1533 ANTENNA_c147_A
*1534 ANTENNA_c148_A0
*1535 ANTENNA_c148_A3
*1536 ANTENNA_c148_S0
*1537 ANTENNA_c149_A1
*1538 ANTENNA_c149_B1_N
*1539 ANTENNA_c150_A0
*1540 ANTENNA_c150_A1
*1541 ANTENNA_c151_X
*1542 ANTENNA_c153_X
*1543 ANTENNA_c154_B
*1544 ANTENNA_c155_A
*1545 ANTENNA_c155_Y
*1546 ANTENNA_c156_B
*1547 ANTENNA_c156_Y
*1548 ANTENNA_c157_A1
*1549 ANTENNA_c157_A2
*1550 ANTENNA_c157_B1_N
*1551 ANTENNA_c158_A1
*1552 ANTENNA_c158_A2
*1553 ANTENNA_c158_B1_N
*1554 ANTENNA_c158_X
*1555 ANTENNA_c159_A
*1556 ANTENNA_c159_B
*1557 ANTENNA_c160_A1
*1558 ANTENNA_c160_X
*1559 ANTENNA_c161_A
*1560 ANTENNA_c161_B
*1561 ANTENNA_c161_Y
*1562 ANTENNA_c162_Y
*1563 ANTENNA_c163_A
*1564 ANTENNA_c163_B
*1565 ANTENNA_c163_Y
*1566 ANTENNA_c164_A
*1567 ANTENNA_c164_Y
*1568 ANTENNA_c165_A1
*1569 ANTENNA_c165_A2
*1570 ANTENNA_c165_B1_N
*1571 ANTENNA_c165_X
*1572 ANTENNA_c166_A1
*1573 ANTENNA_c166_A2
*1574 ANTENNA_c166_X
*1575 ANTENNA_c167_A1
*1576 ANTENNA_c167_A2
*1577 ANTENNA_c167_B1_N
*1578 ANTENNA_c168_B
*1579 ANTENNA_c168_Y
*1580 ANTENNA_c169_A1
*1581 ANTENNA_c169_A2
*1582 ANTENNA_c169_B1_N
*1583 ANTENNA_c169_X
*1584 ANTENNA_c170_A1
*1585 ANTENNA_c170_X
*1586 ANTENNA_c171_A1
*1587 ANTENNA_c171_A2
*1588 ANTENNA_c171_A3
*1589 ANTENNA_c171_B1
*1590 ANTENNA_c172_A0
*1591 ANTENNA_c172_A1
*1592 ANTENNA_c172_A2
*1593 ANTENNA_c172_A3
*1594 ANTENNA_c172_S0
*1595 ANTENNA_c172_S1
*1596 ANTENNA_c172_X
*1597 ANTENNA_c173_A
*1598 ANTENNA_c173_Y
*1599 ANTENNA_c174_A2
*1600 ANTENNA_c174_B1_N
*1601 ANTENNA_c174_X
*1602 ANTENNA_c175_A0
*1603 ANTENNA_c175_A1
*1604 ANTENNA_c175_A2
*1605 ANTENNA_c175_S0
*1606 ANTENNA_c175_X
*1607 ANTENNA_c176_A1
*1608 ANTENNA_c176_A2
*1609 ANTENNA_c176_B1_N
*1610 ANTENNA_c176_X
*1611 ANTENNA_c177_A
*1612 ANTENNA_c177_B
*1613 ANTENNA_c178_A
*1614 ANTENNA_c178_B
*1615 ANTENNA_c180_A2
*1616 ANTENNA_c180_A4
*1617 ANTENNA_c180_B1
*1618 ANTENNA_c180_X
*1619 ANTENNA_c181_A2
*1620 ANTENNA_c181_A3
*1621 ANTENNA_c181_A4
*1622 ANTENNA_c181_B1
*1623 ANTENNA_c181_X
*1624 ANTENNA_c182_A1
*1625 ANTENNA_c182_A2
*1626 ANTENNA_c182_B1_N
*1627 ANTENNA_c183_A1
*1628 ANTENNA_c183_B1_N
*1629 ANTENNA_c183_X
*1630 ANTENNA_c184_A1
*1631 ANTENNA_c186_A1
*1632 ANTENNA_c186_A2
*1633 ANTENNA_c186_B1_N
*1634 ANTENNA_c187_A
*1635 ANTENNA_c188_A1
*1636 ANTENNA_c188_A2
*1637 ANTENNA_c188_X
*1638 ANTENNA_c192_A2
*1639 ANTENNA_c192_S0
*1640 ANTENNA_c192_X
*1641 ANTENNA_c194_A1
*1642 ANTENNA_c194_A2
*1643 ANTENNA_c194_X
*1644 ANTENNA_c195_A1
*1645 ANTENNA_c195_A2
*1646 ANTENNA_c195_A3
*1647 ANTENNA_c195_B1
*1648 ANTENNA_c196_A1
*1649 ANTENNA_c196_A3
*1650 ANTENNA_c197_A1
*1651 ANTENNA_c198_B1_N
*1652 ANTENNA_c199_A1
*1653 ANTENNA_c199_A2
*1654 ANTENNA_c199_B1_N
*1655 ANTENNA_c200_X
*1656 ANTENNA_c201_A2
*1657 ANTENNA_c201_A3
*1658 ANTENNA_c201_B1
*1659 ANTENNA_c202_A1
*1660 ANTENNA_c202_B1_N
*1661 ANTENNA_c205_S0
*1662 ANTENNA_c205_S1
*1663 ANTENNA_c206_A1
*1664 ANTENNA_c206_A2
*1665 ANTENNA_c206_B1
*1666 ANTENNA_c207_A0
*1667 ANTENNA_c207_A2
*1668 ANTENNA_c207_A3
*1669 ANTENNA_c207_S0
*1670 ANTENNA_c207_S1
*1671 ANTENNA_c208_A4
*1672 ANTENNA_c208_B1
*1673 ANTENNA_c208_X
*1674 ANTENNA_c210_A0
*1675 ANTENNA_c210_S0
*1676 ANTENNA_c210_S1
*1677 ANTENNA_c211_A1
*1678 ANTENNA_c211_A2
*1679 ANTENNA_c211_S1
*1680 ANTENNA_c212_A1
*1681 ANTENNA_c212_X
*1682 ANTENNA_c213_B1_N
*1683 ANTENNA_c213_X
*1684 ANTENNA_c214_A2
*1685 ANTENNA_c214_A4
*1686 ANTENNA_c215_A3
*1687 ANTENNA_c216_A2
*1688 ANTENNA_c216_S1
*1689 ANTENNA_c217_A
*1690 ANTENNA_c217_X
*1691 ANTENNA_c218_CLK_N
*1692 ANTENNA_c218_Q_N
*1693 ANTENNA_c218_SET_B
*1694 ANTENNA_c219_CLK_N
*1695 ANTENNA_c219_D
*1696 ANTENNA_c219_SCE
*1697 ANTENNA_c220_A1
*1698 ANTENNA_c220_A2
*1699 ANTENNA_c220_B1_N
*1700 ANTENNA_c221_A2
*1701 ANTENNA_c222_A2
*1702 ANTENNA_c222_B1_N
*1703 ANTENNA_c223_CLK
*1704 ANTENNA_c223_Q
*1705 ANTENNA_c224_A1
*1706 ANTENNA_c224_A2
*1707 ANTENNA_c224_B1_N
*1708 ANTENNA_c225_A
*1709 ANTENNA_c226_A3
*1710 ANTENNA_c226_B1
*1711 ANTENNA_c227_A1
*1712 ANTENNA_c229_A1
*1713 ANTENNA_c229_A2
*1714 ANTENNA_c230_A3
*1715 ANTENNA_c231_X
*1716 ANTENNA_c232_X
*1717 ANTENNA_c233_A1
*1718 ANTENNA_c233_A2
*1719 ANTENNA_c233_B1
*1720 ANTENNA_c234_A3
*1721 ANTENNA_c234_S0
*1722 ANTENNA_c234_S1
*1723 ANTENNA_c235_A
*1724 ANTENNA_c236_CLK
*1725 ANTENNA_c236_RESET_B
*1726 ANTENNA_c236_SCE
*1727 ANTENNA_c237_A1
*1728 ANTENNA_c237_A2
*1729 ANTENNA_c237_S0
*1730 ANTENNA_c238_A
*1731 ANTENNA_c238_X
*1732 ANTENNA_c239_A3
*1733 ANTENNA_c240_A3
*1734 ANTENNA_c240_X
*1735 ANTENNA_c241_A3
*1736 ANTENNA_c241_A4
*1737 ANTENNA_c242_A1
*1738 ANTENNA_c243_A3
*1739 ANTENNA_c243_B1
*1740 ANTENNA_c244_A1
*1741 ANTENNA_c244_A2
*1742 ANTENNA_c246_A2
*1743 ANTENNA_c247_A4
*1744 ANTENNA_c249_A2
*1745 ANTENNA_c249_B1
*1746 ANTENNA_c250_A2
*1747 ANTENNA_c251_A1
*1748 ANTENNA_c251_A2
*1749 ANTENNA_c252_A1
*1750 ANTENNA_c253_A1
*1751 ANTENNA_c253_A2
*1752 ANTENNA_c253_B1_N
*1753 ANTENNA_c254_A3
*1754 ANTENNA_c255_A0
*1755 ANTENNA_c255_A3
*1756 ANTENNA_c256_B1_N
*1757 ANTENNA_c257_A1
*1758 ANTENNA_c259_CLK_N
*1759 ANTENNA_c259_SCE
*1760 ANTENNA_c260_A0
*1761 ANTENNA_c260_S0
*1762 ANTENNA_c260_S1
*1763 ANTENNA_c261_A1
*1764 ANTENNA_c262_A1
*1765 ANTENNA_c264_A1
*1766 ANTENNA_c264_A2
*1767 ANTENNA_c264_X
*1768 ANTENNA_c265_A
*1769 ANTENNA_c267_A
*1770 ANTENNA_c268_A1
*1771 ANTENNA_c268_A2
*1772 ANTENNA_c268_B1_N
*1773 ANTENNA_c268_X
*1774 ANTENNA_c269_A
*1775 ANTENNA_c272_B
*1776 ANTENNA_c272_Y
*1777 ANTENNA_c273_Y
*1778 ANTENNA_c274_A
*1779 ANTENNA_c274_B
*1780 ANTENNA_c274_Y
*1781 ANTENNA_c275_B
*1782 ANTENNA_c276_B1_N
*1783 ANTENNA_c276_X
*1784 ANTENNA_c277_A
*1785 ANTENNA_c277_Y
*1786 ANTENNA_c278_A
*1787 ANTENNA_c278_B
*1788 ANTENNA_c278_Y
*1789 ANTENNA_c280_A1
*1790 ANTENNA_c280_B1_N
*1791 ANTENNA_c280_X
*1792 ANTENNA_c281_A1
*1793 ANTENNA_c281_X
*1794 ANTENNA_c282_A1
*1795 ANTENNA_c282_A2
*1796 ANTENNA_c282_B1_N
*1797 ANTENNA_c282_X
*1798 ANTENNA_c283_A1
*1799 ANTENNA_c283_X
*1800 ANTENNA_c284_X
*1801 ANTENNA_c285_A2
*1802 ANTENNA_c286_Y
*1803 ANTENNA_c288_A2
*1804 ANTENNA_c288_B1_N
*1805 ANTENNA_c288_X
*1806 ANTENNA_c289_A