*SPEF "ieee 1481-1999"
*DESIGN "netlist_0"
*DATE "01:51:28 Monday July 29, 2024"
*VENDOR "The OpenROAD Project"
*PROGRAM "OpenROAD"
*VERSION "d423155d69de7f683a23f6916ead418a615ad4ad"
*DESIGN_FLOW "NAME_SCOPE LOCAL" "PIN_CAP NONE"
*DIVIDER /
*DELIMITER :
*BUS_DELIMITER []
*T_UNIT 1 NS
*C_UNIT 1 PF
*R_UNIT 1 OHM
*L_UNIT 1 HENRY

*NAME_MAP
*3 clk
*4 in0
*5 in1
*6 in10
*7 in11
*8 in12
*9 in13
*10 in14
*11 in15
*12 in16
*13 in17
*14 in18
*15 in19
*16 in2
*17 in20
*18 in21
*19 in22
*20 in23
*21 in24
*22 in25
*23 in26
*24 in27
*25 in28
*26 in29
*27 in3
*28 in30
*29 in31
*30 in32
*31 in33
*32 in34
*33 in35
*34 in36
*35 in37
*36 in38
*37 in39
*38 in4
*39 in40
*40 in41
*41 in42
*42 in43
*43 in44
*44 in45
*45 in46
*46 in47
*47 in48
*48 in49
*49 in5
*50 in50
*51 in51
*52 in52
*53 in53
*54 in54
*55 in55
*56 in56
*57 in57
*58 in58
*59 in59
*60 in6
*61 in60
*62 in61
*63 in7
*64 in8
*65 in9
*66 out0
*67 out1
*68 out10
*69 out11
*70 out12
*71 out13
*72 out14
*73 out15
*74 out16
*75 out17
*76 out18
*77 out19
*78 out2
*79 out20
*80 out21
*81 out22
*82 out23
*83 out24
*84 out25
*85 out26
*86 out27
*87 out28
*88 out29
*89 out3
*90 out30
*91 out31
*92 out32
*93 out33
*94 out34
*95 out35
*96 out36
*97 out37
*98 out38
*99 out39
*100 out4
*101 out40
*102 out41
*103 out42
*104 out43
*105 out44
*106 out45
*107 out46
*108 out47
*109 out48
*110 out49
*111 out5
*112 out50
*113 out51
*114 out52
*115 out53
*116 out54
*117 out55
*118 out56
*119 out57
*120 out58
*121 out59
*122 out6
*123 out60
*124 out61
*125 out7
*126 out8
*127 out9
*128 rst
*129 clknet_0_clk
*130 clknet_0_net206
*131 clknet_0_net238
*132 clknet_0_net246
*133 clknet_0_net265
*134 clknet_0_net274
*135 clknet_0_net293
*136 clknet_0_net302
*137 clknet_0_net305
*138 clknet_0_net309
*139 clknet_0_net312
*140 clknet_0_net316
*141 clknet_0_net322
*142 clknet_0_net331
*143 clknet_0_net333
*144 clknet_0_net360
*145 clknet_0_net381
*146 clknet_0_net397
*147 clknet_0_net399
*148 clknet_0_net517
*149 clknet_0_net540
*150 clknet_0_net541
*151 clknet_0_net556
*152 clknet_0_net561
*153 clknet_0_net568
*154 clknet_0_net583
*155 clknet_0_net587
*156 clknet_0_net590
*157 clknet_0_net591
*158 clknet_0_net621
*159 clknet_0_net698
*160 clknet_0_net699
*161 clknet_0_net717
*162 clknet_0_net718
*163 clknet_0_net719
*164 clknet_0_net736
*165 clknet_0_net737
*166 clknet_0_net755
*167 clknet_0_net756
*168 clknet_0_net757
*169 clknet_0_net773
*170 clknet_0_net774
*171 clknet_0_net775
*172 clknet_0_net792
*173 clknet_0_net793
*174 clknet_0_net794
*175 clknet_0_net870
*176 clknet_0_net887
*177 clknet_0_net897
*178 clknet_0_net909
*179 clknet_0_net925
*180 clknet_1_0__leaf_net206
*181 clknet_1_0__leaf_net238
*182 clknet_1_0__leaf_net246
*183 clknet_1_0__leaf_net265
*184 clknet_1_0__leaf_net274
*185 clknet_1_0__leaf_net293
*186 clknet_1_0__leaf_net302
*187 clknet_1_0__leaf_net305
*188 clknet_1_0__leaf_net309
*189 clknet_1_0__leaf_net312
*190 clknet_1_0__leaf_net316
*191 clknet_1_0__leaf_net322
*192 clknet_1_0__leaf_net331
*193 clknet_1_0__leaf_net333
*194 clknet_1_0__leaf_net360
*195 clknet_1_0__leaf_net381
*196 clknet_1_0__leaf_net397
*197 clknet_1_0__leaf_net399
*198 clknet_1_0__leaf_net517
*199 clknet_1_0__leaf_net540
*200 clknet_1_0__leaf_net541
*201 clknet_1_0__leaf_net556
*202 clknet_1_0__leaf_net561
*203 clknet_1_0__leaf_net568
*204 clknet_1_0__leaf_net583
*205 clknet_1_0__leaf_net587
*206 clknet_1_0__leaf_net590
*207 clknet_1_0__leaf_net591
*208 clknet_1_0__leaf_net621
*209 clknet_1_0__leaf_net698
*210 clknet_1_0__leaf_net699
*211 clknet_1_0__leaf_net717
*212 clknet_1_0__leaf_net718
*213 clknet_1_0__leaf_net719
*214 clknet_1_0__leaf_net736
*215 clknet_1_0__leaf_net737
*216 clknet_1_0__leaf_net755
*217 clknet_1_0__leaf_net756
*218 clknet_1_0__leaf_net757
*219 clknet_1_0__leaf_net773
*220 clknet_1_0__leaf_net774
*221 clknet_1_0__leaf_net775
*222 clknet_1_0__leaf_net792
*223 clknet_1_0__leaf_net793
*224 clknet_1_0__leaf_net794
*225 clknet_1_0__leaf_net870
*226 clknet_1_0__leaf_net887
*227 clknet_1_0__leaf_net897
*228 clknet_1_0__leaf_net909
*229 clknet_1_0__leaf_net925
*230 clknet_1_1__leaf_net206
*231 clknet_1_1__leaf_net238
*232 clknet_1_1__leaf_net246
*233 clknet_1_1__leaf_net265
*234 clknet_1_1__leaf_net274
*235 clknet_1_1__leaf_net293
*236 clknet_1_1__leaf_net302
*237 clknet_1_1__leaf_net305
*238 clknet_1_1__leaf_net309
*239 clknet_1_1__leaf_net312
*240 clknet_1_1__leaf_net316
*241 clknet_1_1__leaf_net322
*242 clknet_1_1__leaf_net331
*243 clknet_1_1__leaf_net333
*244 clknet_1_1__leaf_net360
*245 clknet_1_1__leaf_net381
*246 clknet_1_1__leaf_net397
*247 clknet_1_1__leaf_net399
*248 clknet_1_1__leaf_net517
*249 clknet_1_1__leaf_net540
*250 clknet_1_1__leaf_net541
*251 clknet_1_1__leaf_net556
*252 clknet_1_1__leaf_net561
*253 clknet_1_1__leaf_net568
*254 clknet_1_1__leaf_net583
*255 clknet_1_1__leaf_net587
*256 clknet_1_1__leaf_net590
*257 clknet_1_1__leaf_net591
*258 clknet_1_1__leaf_net621
*259 clknet_1_1__leaf_net698
*260 clknet_1_1__leaf_net699
*261 clknet_1_1__leaf_net717
*262 clknet_1_1__leaf_net718
*263 clknet_1_1__leaf_net719
*264 clknet_1_1__leaf_net736
*265 clknet_1_1__leaf_net737
*266 clknet_1_1__leaf_net755
*267 clknet_1_1__leaf_net756
*268 clknet_1_1__leaf_net757
*269 clknet_1_1__leaf_net773
*270 clknet_1_1__leaf_net774
*271 clknet_1_1__leaf_net775
*272 clknet_1_1__leaf_net792
*273 clknet_1_1__leaf_net793
*274 clknet_1_1__leaf_net794
*275 clknet_1_1__leaf_net870
*276 clknet_1_1__leaf_net887
*277 clknet_1_1__leaf_net897
*278 clknet_1_1__leaf_net909
*279 clknet_1_1__leaf_net925
*280 clknet_4_0_0_clk
*281 clknet_4_10_0_clk
*282 clknet_4_11_0_clk
*283 clknet_4_12_0_clk
*284 clknet_4_13_0_clk
*285 clknet_4_14_0_clk
*286 clknet_4_15_0_clk
*287 clknet_4_1_0_clk
*288 clknet_4_2_0_clk
*289 clknet_4_3_0_clk
*290 clknet_4_4_0_clk
*291 clknet_4_5_0_clk
*292 clknet_4_6_0_clk
*293 clknet_4_7_0_clk
*294 clknet_4_8_0_clk
*295 clknet_4_9_0_clk
*296 net0
*297 net1
*298 net10
*299 net100
*300 net1000
*301 net101
*302 net102
*303 net103
*304 net104
*305 net105
*306 net106
*307 net107
*308 net108
*309 net109
*310 net11
*311 net110
*312 net111
*313 net112
*314 net113
*315 net114
*316 net115
*317 net116
*318 net117
*319 net118
*320 net119
*321 net12
*322 net120
*323 net121
*324 net122
*325 net123
*326 net124
*327 net125
*328 net126
*329 net127
*330 net128
*331 net129
*332 net13
*333 net130
*334 net131
*335 net132
*336 net133
*337 net134
*338 net135
*339 net136
*340 net137
*341 net138
*342 net139
*343 net14
*344 net140
*345 net141
*346 net142
*347 net143
*348 net144
*349 net145
*350 net146
*351 net147
*352 net148
*353 net149
*354 net15
*355 net150
*356 net151
*357 net152
*358 net153
*359 net154
*360 net155
*361 net156
*362 net157
*363 net158
*364 net159
*365 net16
*366 net160
*367 net161
*368 net162
*369 net163
*370 net164
*371 net165
*372 net166
*373 net167
*374 net168
*375 net169
*376 net17
*377 net170
*378 net171
*379 net172
*380 net173
*381 net174
*382 net175
*383 net176
*384 net177
*385 net178
*386 net179
*387 net18
*388 net180
*389 net181
*390 net182
*391 net183
*392 net184
*393 net185
*394 net186
*395 net187
*396 net188
*397 net189
*398 net19
*399 net190
*400 net191
*401 net192
*402 net193
*403 net194
*404 net195
*405 net196
*406 net197
*407 net198
*408 net199
*409 net2
*410 net20
*411 net200
*412 net201
*413 net202
*414 net203
*415 net204
*416 net205
*417 net206
*418 net207
*419 net208
*420 net209
*421 net21
*422 net210
*423 net211
*424 net212
*425 net213
*426 net214
*427 net215
*428 net216
*429 net217
*430 net218
*431 net219
*432 net22
*433 net220
*434 net221
*435 net222
*436 net223
*437 net224
*438 net225
*439 net226
*440 net227
*441 net228
*442 net229
*443 net23
*444 net230
*445 net231
*446 net232
*447 net233
*448 net234
*449 net235
*450 net236
*451 net237
*452 net238
*453 net239
*454 net24
*455 net240
*456 net241
*457 net242
*458 net243
*459 net244
*460 net245
*461 net246
*462 net247
*463 net248
*464 net249
*465 net25
*466 net250
*467 net251
*468 net252
*469 net253
*470 net254
*471 net255
*472 net256
*473 net257
*474 net258
*475 net259
*476 net26
*477 net260
*478 net261
*479 net262
*480 net263
*481 net264
*482 net265
*483 net266
*484 net267
*485 net268
*486 net269
*487 net27
*488 net270
*489 net271
*490 net272
*491 net273
*492 net274
*493 net275
*494 net276
*495 net277
*496 net278
*497 net279
*498 net28
*499 net280
*500 net281
*501 net282
*502 net283
*503 net284
*504 net285
*505 net286
*506 net287
*507 net288
*508 net289
*509 net29
*510 net290
*511 net291
*512 net292
*513 net293
*514 net294
*515 net295
*516 net296
*517 net297
*518 net298
*519 net299
*520 net3
*521 net30
*522 net300
*523 net301
*524 net302
*525 net303
*526 net304
*527 net305
*528 net306
*529 net307
*530 net308
*531 net309
*532 net31
*533 net310
*534 net311
*535 net312
*536 net313
*537 net314
*538 net315
*539 net316
*540 net317
*541 net318
*542 net319
*543 net32
*544 net320
*545 net321
*546 net322
*547 net323
*548 net324
*549 net325
*550 net326
*551 net327
*552 net328
*553 net329
*554 net33
*555 net330
*556 net331
*557 net332
*558 net333
*559 net334
*560 net335
*561 net336
*562 net337
*563 net338
*564 net339
*565 net34
*566 net340
*567 net341
*568 net342
*569 net343
*570 net344
*571 net345
*572 net346
*573 net347
*574 net348
*575 net349
*576 net35
*577 net350
*578 net351
*579 net352
*580 net353
*581 net354
*582 net355
*583 net356
*584 net357
*585 net358
*586 net359
*587 net36
*588 net360
*589 net361
*590 net362
*591 net363
*592 net364
*593 net365
*594 net366
*595 net367
*596 net368
*597 net369
*598 net37
*599 net370
*600 net371
*601 net372
*602 net373
*603 net374
*604 net375
*605 net376
*606 net377
*607 net378
*608 net379
*609 net38
*610 net380
*611 net381
*612 net382
*613 net383
*614 net384
*615 net385
*616 net386
*617 net387
*618 net388
*619 net389
*620 net39
*621 net390
*622 net391
*623 net392
*624 net393
*625 net394
*626 net395
*627 net396
*628 net397
*629 net398
*630 net399
*631 net4
*632 net40
*633 net400
*634 net401
*635 net402
*636 net403
*637 net404
*638 net405
*639 net406
*640 net407
*641 net408
*642 net409
*643 net41
*644 net410
*645 net411
*646 net412
*647 net413
*648 net414
*649 net415
*650 net416
*651 net417
*652 net418
*653 net419
*654 net42
*655 net420
*656 net421
*657 net422
*658 net423
*659 net424
*660 net425
*661 net426
*662 net427
*663 net428
*664 net429
*665 net43
*666 net430
*667 net431
*668 net432
*669 net433
*670 net434
*671 net435
*672 net436
*673 net437
*674 net438
*675 net439
*676 net44
*677 net440
*678 net441
*679 net442
*680 net443
*681 net444
*682 net445
*683 net446
*684 net447
*685 net448
*686 net449
*687 net45
*688 net450
*689 net451
*690 net452
*691 net453
*692 net454
*693 net455
*694 net456
*695 net457
*696 net458
*697 net459
*698 net46
*699 net460
*700 net461
*701 net462
*702 net463
*703 net464
*704 net465
*705 net466
*706 net467
*707 net468
*708 net469
*709 net47
*710 net470
*711 net471
*712 net472
*713 net473
*714 net474
*715 net475
*716 net476
*717 net477
*718 net478
*719 net479
*720 net48
*721 net480
*722 net481
*723 net482
*724 net483
*725 net484
*726 net485
*727 net486
*728 net487
*729 net488
*730 net489
*731 net49
*732 net490
*733 net491
*734 net492
*735 net493
*736 net494
*737 net495
*738 net496
*739 net497
*740 net498
*741 net499
*742 net5
*743 net50
*744 net500
*745 net501
*746 net502
*747 net503
*748 net504
*749 net505
*750 net506
*751 net507
*752 net508
*753 net509
*754 net51
*755 net510
*756 net511
*757 net512
*758 net513
*759 net514
*760 net515
*761 net516
*762 net517
*763 net518
*764 net519
*765 net52
*766 net520
*767 net521
*768 net522
*769 net523
*770 net524
*771 net525
*772 net526
*773 net527
*774 net528
*775 net529
*776 net53
*777 net530
*778 net531
*779 net532
*780 net533
*781 net534
*782 net535
*783 net536
*784 net537
*785 net538
*786 net539
*787 net54
*788 net540
*789 net541
*790 net542
*791 net543
*792 net544
*793 net545
*794 net546
*795 net547
*796 net548
*797 net549
*798 net55
*799 net550
*800 net551
*801 net552
*802 net553
*803 net554
*804 net555
*805 net556
*806 net557
*807 net558
*808 net559
*809 net56
*810 net560
*811 net561
*812 net562
*813 net563
*814 net564
*815 net565
*816 net566
*817 net567
*818 net568
*819 net569
*820 net57
*821 net570
*822 net571
*823 net572
*824 net573
*825 net574
*826 net575
*827 net576
*828 net577
*829 net578
*830 net579
*831 net58
*832 net580
*833 net581
*834 net582
*835 net583
*836 net584
*837 net585
*838 net586
*839 net587
*840 net588
*841 net589
*842 net59
*843 net590
*844 net591
*845 net592
*846 net593
*847 net594
*848 net595
*849 net596
*850 net597
*851 net598
*852 net599
*853 net6
*854 net60
*855 net600
*856 net601
*857 net602
*858 net603
*859 net604
*860 net605
*861 net606
*862 net607
*863 net608
*864 net609
*865 net61
*866 net610
*867 net611
*868 net612
*869 net613
*870 net614
*871 net615
*872 net616
*873 net617
*874 net618
*875 net619
*876 net62
*877 net620
*878 net621
*879 net622
*880 net623
*881 net624
*882 net625
*883 net626
*884 net627
*885 net628
*886 net629
*887 net63
*888 net630
*889 net631
*890 net632
*891 net633
*892 net634
*893 net635
*894 net636
*895 net637
*896 net638
*897 net639
*898 net64
*899 net640
*900 net641
*901 net642
*902 net643
*903 net644
*904 net645
*905 net646
*906 net647
*907 net648
*908 net649
*909 net65
*910 net650
*911 net651
*912 net652
*913 net653
*914 net654
*915 net655
*916 net656
*917 net657
*918 net658
*919 net659
*920 net66
*921 net660
*922 net661
*923 net662
*924 net663
*925 net664
*926 net665
*927 net666
*928 net667
*929 net668
*930 net669
*931 net67
*932 net670
*933 net671
*934 net672
*935 net673
*936 net674
*937 net675
*938 net676
*939 net677
*940 net678
*941 net679
*942 net68
*943 net680
*944 net681
*945 net682
*946 net683
*947 net684
*948 net685
*949 net686
*950 net687
*951 net688
*952 net689
*953 net69
*954 net690
*955 net691
*956 net692
*957 net693
*958 net694
*959 net695
*960 net696
*961 net697
*962 net698
*963 net699
*964 net7
*965 net70
*966 net700
*967 net701
*968 net702
*969 net703
*970 net704
*971 net705
*972 net706
*973 net707
*974 net708
*975 net709
*976 net71
*977 net710
*978 net711
*979 net712
*980 net713
*981 net714
*982 net715
*983 net716
*984 net717
*985 net718
*986 net719
*987 net72
*988 net720
*989 net721
*990 net722
*991 net723
*992 net724
*993 net725
*994 net726
*995 net727
*996 net728
*997 net729
*998 net73
*999 net730
*1000 net731
*1001 net732
*1002 net733
*1003 net734
*1004 net735
*1005 net736
*1006 net737
*1007 net738
*1008 net739
*1009 net74
*1010 net740
*1011 net741
*1012 net742
*1013 net743
*1014 net744
*1015 net745
*1016 net746
*1017 net747
*1018 net748
*1019 net749
*1020 net75
*1021 net750
*1022 net751
*1023 net752
*1024 net753
*1025 net754
*1026 net755
*1027 net756
*1028 net757
*1029 net758
*1030 net759
*1031 net76
*1032 net760
*1033 net761
*1034 net762
*1035 net763
*1036 net764
*1037 net765
*1038 net766
*1039 net767
*1040 net768
*1041 net769
*1042 net77
*1043 net770
*1044 net771
*1045 net772
*1046 net773
*1047 net774
*1048 net775
*1049 net776
*1050 net777
*1051 net778
*1052 net779
*1053 net78
*1054 net780
*1055 net781
*1056 net782
*1057 net783
*1058 net784
*1059 net785
*1060 net786
*1061 net787
*1062 net788
*1063 net789
*1064 net79
*1065 net790
*1066 net791
*1067 net792
*1068 net793
*1069 net794
*1070 net795
*1071 net796
*1072 net797
*1073 net798
*1074 net799
*1075 net8
*1076 net80
*1077 net800
*1078 net801
*1079 net802
*1080 net803
*1081 net804
*1082 net805
*1083 net806
*1084 net807
*1085 net808
*1086 net809
*1087 net81
*1088 net810
*1089 net811
*1090 net812
*1091 net813
*1092 net814
*1093 net815
*1094 net816
*1095 net817
*1096 net818
*1097 net819
*1098 net82
*1099 net820
*1100 net821
*1101 net822
*1102 net823
*1103 net824
*1104 net825
*1105 net826
*1106 net827
*1107 net828
*1108 net829
*1109 net83
*1110 net830
*1111 net831
*1112 net832
*1113 net833
*1114 net834
*1115 net835
*1116 net836
*1117 net837
*1118 net838
*1119 net839
*1120 net84
*1121 net840
*1122 net841
*1123 net842
*1124 net843
*1125 net844
*1126 net845
*1127 net846
*1128 net847
*1129 net848
*1130 net849
*1131 net85
*1132 net850
*1133 net851
*1134 net852
*1135 net853
*1136 net854
*1137 net855
*1138 net856
*1139 net857
*1140 net858
*1141 net859
*1142 net86
*1143 net860
*1144 net861
*1145 net862
*1146 net863
*1147 net864
*1148 net865
*1149 net866
*1150 net867
*1151 net868
*1152 net869
*1153 net87
*1154 net870
*1155 net871
*1156 net872
*1157 net873
*1158 net874
*1159 net875
*1160 net876
*1161 net877
*1162 net878
*1163 net879
*1164 net88
*1165 net880
*1166 net881
*1167 net882
*1168 net883
*1169 net884
*1170 net885
*1171 net886
*1172 net887
*1173 net888
*1174 net889
*1175 net89
*1176 net890
*1177 net891
*1178 net892
*1179 net893
*1180 net894
*1181 net895
*1182 net896
*1183 net897
*1184 net898
*1185 net899
*1186 net9
*1187 net90
*1188 net900
*1189 net901
*1190 net902
*1191 net903
*1192 net904
*1193 net905
*1194 net906
*1195 net907
*1196 net908
*1197 net909
*1198 net91
*1199 net910
*1200 net911
*1201 net912
*1202 net913
*1203 net914
*1204 net915
*1205 net916
*1206 net917
*1207 net918
*1208 net919
*1209 net92
*1210 net920
*1211 net921
*1212 net922
*1213 net923
*1214 net924
*1215 net925
*1216 net926
*1217 net927
*1218 net928
*1219 net929
*1220 net93
*1221 net930
*1222 net931
*1223 net932
*1224 net933
*1225 net934
*1226 net935
*1227 net936
*1228 net937
*1229 net938
*1230 net939
*1231 net94
*1232 net940
*1233 net941
*1234 net942
*1235 net943
*1236 net944
*1237 net945
*1238 net946
*1239 net947
*1240 net948
*1241 net949
*1242 net95
*1243 net950
*1244 net951
*1245 net952
*1246 net953
*1247 net954
*1248 net955
*1249 net956
*1250 net957
*1251 net958
*1252 net959
*1253 net96
*1254 net960
*1255 net961
*1256 net962
*1257 net963
*1258 net964
*1259 net965
*1260 net966
*1261 net967
*1262 net968
*1263 net969
*1264 net97
*1265 net970
*1266 net971
*1267 net972
*1268 net973
*1269 net974
*1270 net975
*1271 net976
*1272 net977
*1273 net978
*1274 net979
*1275 net98
*1276 net980
*1277 net981
*1278 net982
*1279 net983
*1280 net984
*1281 net985
*1282 net986
*1283 net987
*1284 net988
*1285 net989
*1286 net99
*1287 net990
*1288 net991
*1289 net992
*1290 net993
*1291 net994
*1292 net995
*1293 net996
*1294 net997
*1295 net998
*1296 net999
*1297 ANTENNA_c100_B
*1298 ANTENNA_c100_X
*1299 ANTENNA_c101_X
*1300 ANTENNA_c103_B
*1301 ANTENNA_c104_A3
*1302 ANTENNA_c104_S0
*1303 ANTENNA_c104_S1
*1304 ANTENNA_c105_S0
*1305 ANTENNA_c106_A0
*1306 ANTENNA_c108_X
*1307 ANTENNA_c109_S0
*1308 ANTENNA_c109_X
*1309 ANTENNA_c110_B
*1310 ANTENNA_c111_B
*1311 ANTENNA_c113_A
*1312 ANTENNA_c116_A
*1313 ANTENNA_c117_B
*1314 ANTENNA_c122_C1
*1315 ANTENNA_c132_B
*1316 ANTENNA_c132_X
*1317 ANTENNA_c133_B
*1318 ANTENNA_c134_A
*1319 ANTENNA_c134_B
*1320 ANTENNA_c135_B
*1321 ANTENNA_c135_X
*1322 ANTENNA_c136_B
*1323 ANTENNA_c136_C
*1324 ANTENNA_c137_A
*1325 ANTENNA_c137_X
*1326 ANTENNA_c138_B
*1327 ANTENNA_c138_X
*1328 ANTENNA_c139_A
*1329 ANTENNA_c139_B
*1330 ANTENNA_c140_B
*1331 ANTENNA_c141_B
*1332 ANTENNA_c141_X
*1333 ANTENNA_c142_A
*1334 ANTENNA_c142_B
*1335 ANTENNA_c142_D_N
*1336 ANTENNA_c143_X
*1337 ANTENNA_c145_A
*1338 ANTENNA_c145_B
*1339 ANTENNA_c145_D_N
*1340 ANTENNA_c146_X
*1341 ANTENNA_c147_A
*1342 ANTENNA_c147_B
*1343 ANTENNA_c147_C
*1344 ANTENNA_c148_A0
*1345 ANTENNA_c148_S1
*1346 ANTENNA_c149_A
*1347 ANTENNA_c150_X
*1348 ANTENNA_c151_C_N
*1349 ANTENNA_c151_D_N
*1350 ANTENNA_c151_X
*1351 ANTENNA_c152_A
*1352 ANTENNA_c153_A3
*1353 ANTENNA_c153_S1
*1354 ANTENNA_c153_X
*1355 ANTENNA_c154_B
*1356 ANTENNA_c154_X
*1357 ANTENNA_c155_X
*1358 ANTENNA_c156_B
*1359 ANTENNA_c158_B
*1360 ANTENNA_c159_B
*1361 ANTENNA_c161_B
*1362 ANTENNA_c161_X
*1363 ANTENNA_c162_B
*1364 ANTENNA_c163_B
*1365 ANTENNA_c164_A
*1366 ANTENNA_c164_B
*1367 ANTENNA_c165_C
*1368 ANTENNA_c165_X
*1369 ANTENNA_c166_X
*1370 ANTENNA_c167_B
*1371 ANTENNA_c168_A2
*1372 ANTENNA_c168_C1
*1373 ANTENNA_c169_B1
*1374 ANTENNA_c169_C1
*1375 ANTENNA_c169_D1
*1376 ANTENNA_c170_A0
*1377 ANTENNA_c170_A2
*1378 ANTENNA_c170_S1
*1379 ANTENNA_c172_D_N
*1380 ANTENNA_c173_A2
*1381 ANTENNA_c173_A3
*1382 ANTENNA_c174_X
*1383 ANTENNA_c175_CLK_N
*1384 ANTENNA_c175_Q
*1385 ANTENNA_c175_Q_N
*1386 ANTENNA_c175_SET_B
*1387 ANTENNA_c176_B
*1388 ANTENNA_c176_D_N
*1389 ANTENNA_c177_B
*1390 ANTENNA_c177_D_N
*1391 ANTENNA_c179_C
*1392 ANTENNA_c181_B
*1393 ANTENNA_c181_C
*1394 ANTENNA_c182_X
*1395 ANTENNA_c183_A
*1396 ANTENNA_c184_X
*1397 ANTENNA_c185_B
*1398 ANTENNA_c185_C
*1399 ANTENNA_c186_B
*1400 ANTENNA_c186_C_N
*1401 ANTENNA_c187_B
*1402 ANTENNA_c187_X
*1403 ANTENNA_c188_B
*1404 ANTENNA_c188_D_N
*1405 ANTENNA_c188_X
*1406 ANTENNA_c189_B
*1407 ANTENNA_c189_X
*1408 ANTENNA_c190_B
*1409 ANTENNA_c190_C
*1410 ANTENNA_c191_A
*1411 ANTENNA_c191_C
*1412 ANTENNA_c192_C_N
*1413 ANTENNA_c192_D_N
*1414 ANTENNA_c194_A1
*1415 ANTENNA_c194_A2
*1416 ANTENNA_c195_A3
*1417 ANTENNA_c195_S1
*1418 ANTENNA_c196_S0
*1419 ANTENNA_c197_A3
*1420 ANTENNA_c197_S1
*1421 ANTENNA_c198_A2
*1422 ANTENNA_c199_B
*1423 ANTENNA_c199_X
*1424 ANTENNA_c200_B
*1425 ANTENNA_c200_C
*1426 ANTENNA_c201_A
*1427 ANTENNA_c201_B
*1428 ANTENNA_c201_C_N
*1429 ANTENNA_c204_A2
*1430 ANTENNA_c204_B1
*1431 ANTENNA_c204_C1
*1432 ANTENNA_c204_D1
*1433 ANTENNA_c205_B
*1434 ANTENNA_c205_D_N
*1435 ANTENNA_c205_X
*1436 ANTENNA_c206_A2
*1437 ANTENNA_c206_A3
*1438 ANTENNA_c206_S1
*1439 ANTENNA_c207_A
*1440 ANTENNA_c207_B
*1441 ANTENNA_c207_C_N
*1442 ANTENNA_c207_D_N
*1443 ANTENNA_c208_X
*1444 ANTENNA_c209_A2
*1445 ANTENNA_c209_B1
*1446 ANTENNA_c209_D1
*1447 ANTENNA_c210_B1
*1448 ANTENNA_c210_C1
*1449 ANTENNA_c210_D1
*1450 ANTENNA_c213_CLK_N
*1451 ANTENNA_c214_X
*1452 ANTENNA_c215_C1
*1453 ANTENNA_c216_CLK
*1454 ANTENNA_c216_Q
*1455 ANTENNA_c216_SET_B
*1456 ANTENNA_c217_S1
*1457 ANTENNA_c218_C1
*1458 ANTENNA_c219_A1
*1459 ANTENNA_c219_A2
*1460 ANTENNA_c219_S0
*1461 ANTENNA_c220_B
*1462 ANTENNA_c220_C
*1463 ANTENNA_c221_A
*1464 ANTENNA_c221_B
*1465 ANTENNA_c221_D_N
*1466 ANTENNA_c221_X
*1467 ANTENNA_c223_A
*1468 ANTENNA_c223_B
*1469 ANTENNA_c223_C
*1470 ANTENNA_c223_X
*1471 ANTENNA_c224_A2
*1472 ANTENNA_c224_C1
*1473 ANTENNA_c225_A0
*1474 ANTENNA_c225_A1
*1475 ANTENNA_c225_A2
*1476 ANTENNA_c225_A3
*1477 ANTENNA_c225_S0
*1478 ANTENNA_c225_S1
*1479 ANTENNA_c226_B
*1480 ANTENNA_c227_C1
*1481 ANTENNA_c227_X
*1482 ANTENNA_c228_B
*1483 ANTENNA_c228_C
*1484 ANTENNA_c228_X
*1485 ANTENNA_c230_CLK
*1486 ANTENNA_c230_Q
*1487 ANTENNA_c230_Q_N
*1488 ANTENNA_c230_RESET_B
*1489 ANTENNA_c230_SCD
*1490 ANTENNA_c231_C_N
*1491 ANTENNA_c232_B
*1492 ANTENNA_c233_B
*1493 ANTENNA_c235_A3
*1494 ANTENNA_c237_A3
*1495 ANTENNA_c237_S0
*1496 ANTENNA_c238_A0
*1497 ANTENNA_c238_A2
*1498 ANTENNA_c240_A1
*1499 ANTENNA_c240_S0
*1500 ANTENNA_c240_S1
*1501 ANTENNA_c240_X
*1502 ANTENNA_c241_A0
*1503 ANTENNA_c241_S1
*1504 ANTENNA_c243_C
*1505 ANTENNA_c244_A2
*1506 ANTENNA_c246_A
*1507 ANTENNA_c246_B
*1508 ANTENNA_c246_C_N
*1509 ANTENNA_c247_A
*1510 ANTENNA_c247_B
*1511 ANTENNA_c248_A
*1512 ANTENNA_c248_B
*1513 ANTENNA_c249_C
*1514 ANTENNA_c250_A0
*1515 ANTENNA_c250_A1
*1516 ANTENNA_c250_S1
*1517 ANTENNA_c251_A
*1518 ANTENNA_c254_B1
*1519 ANTENNA_c255_A2
*1520 ANTENNA_c256_C
*1521 ANTENNA_c258_S0
*1522 ANTENNA_c258_S1
*1523 ANTENNA_c259_SET_B
*1524 ANTENNA_c262_A3
*1525 ANTENNA_c262_S1
*1526 ANTENNA_c264_B
*1527 ANTENNA_c265_A
*1528 ANTENNA_c265_B
*1529 ANTENNA_c266_X
*1530 ANTENNA_c267_B
*1531 ANTENNA_c267_X
*1532 ANTENNA_c268_B
*1533 ANTENNA_c268_X
*1534 ANTENNA_c270_A
*1535 ANTENNA_c270_B
*1536 ANTENNA_c271_A
*1537 ANTENNA_c272_A
*1538 ANTENNA_c272_B
*1539 ANTENNA_c272_C
*1540 ANTENNA_c273_B
*1541 ANTENNA_c273_C
*1542 ANTENNA_c273_X
*1543 ANTENNA_c275_A
*1544 ANTENNA_c276_B
*1545 ANTENNA_c277_X
*1546 ANTENNA_c278_A
*1547 ANTENNA_c278_C
*1548 ANTENNA_c278_X
*1549 ANTENNA_c279_A2
*1550 ANTENNA_c279_B1
*1551 ANTENNA_c279_C1
*1552 ANTENNA_c279_D1
*1553 ANTENNA_c281_S1
*1554 ANTENNA_c282_A3
*1555 ANTENNA_c282_S0
*1556 ANTENNA_c284_A2
*1557 ANTENNA_c284_A3
*1558 ANTENNA_c284_S1
*1559 ANTENNA_c287_B
*1560 ANTENNA_c287_X
*1561 ANTENNA_c288_B
*1562 ANTENNA_c288_C
*1563 ANTENNA_c288_X
*1564 ANTENNA_c289_B
*1565 ANTENNA_c289_C
*1566 ANTENNA_c291_B
*1567 ANTENNA_c292_B
*1568 ANTENNA_c292_X
*1569 ANTENNA_c293_B
*1570 ANTENNA_c294_A
*1571 ANTENNA_c294_B
*1572 ANTENNA_c294_C
*1573 ANTENNA_c295_A
*1574 ANTENNA_c296_B
*1575 ANTENNA_c296_C
*1576 ANTENNA_c297_A
*1577 ANTENNA_c298_B
*1578 ANTENNA_c299_C_N
*1579 ANTENNA_c300_A1
*1580 ANTENNA_c300_A2
*1581 ANTENNA_c301_C
*1582 ANTENNA_c301_X
*1583 ANTENNA_c302_B
*1584 ANTENNA_c302_X
*1585 ANTENNA_c303_C_N
*1586 ANTENNA_c303_D_N
*1587 ANTENNA_c304_A1
*1588 ANTENNA_c304_A3
*1589 ANTENNA_c305_X
*1590 ANTENNA_c306_CLK_N
*1591 ANTENNA_c306_Q
*1592 ANTENNA_c306_SCD
*1593 ANTENNA_c306_SCE
*1594 ANTENNA_c307_A3
*1595 ANTENNA_c307_S0
*1596 ANTENNA_c307_S1
*1597 ANTENNA_c308_B
*1598 ANTENNA_c309_X
*1599 ANTENNA_c311_A
*1600 ANTENNA_c311_B
*1601 ANTENNA_c312_B
*1602 ANTENNA_c312_C
*1603 ANTENNA_c313_B
*1604 ANTENNA_c313_X
*1605 ANTENNA_c314_B
*1606 ANTENNA_c314_C_N
*1607 ANTENNA_c315_B
*1608 ANTENNA_c316_A
*1609 ANTENNA_c316_B
*1610 ANTENNA_c317_D_N
*1611 ANTENNA_c317_X
*1612 ANTENNA_c318_A1
*1613 ANTENNA_c318_A3
*1614 ANTENNA_c318_S0
*1615 ANTENNA_c320_X
*1616 ANTENNA_c321_X
*1617 ANTENNA_c322_B
*1618 ANTENNA_c323_S0
*1619 ANTENNA_c323_S1
*1620 ANTENNA_c325_A1
*1621 ANTENNA_c325_S0
*1622 ANTENNA_c326_B
*1623 ANTENNA_c326_C
*1624 ANTENNA_c327_B
*1625 ANTENNA_c327_C
*1626 ANTENNA_c328_S0
*1627 ANTENNA_c329_A0
*1628 ANTENNA_c329_A3
*1629 ANTENNA_c331_B
*1630 ANTENNA_c332_A
*1631 ANTENNA_c332_B
*1632 ANTENNA_c334_X
*1633 ANTENNA_c336_A
*1634 ANTENNA_c337_X
*1635 ANTENNA_c338_A
*1636 ANTENNA_c338_B
*1637 ANTENNA_c338_C
*1638 ANTENNA_c339_A
*1639 ANTENNA_c339_B
*1640 ANTENNA_c340_A
*1641 ANTENNA_c341_A
*1642 ANTENNA_c342_B
*1643 ANTENNA_c342_C_N
*1644 ANTENNA_c342_D_N
*1645 ANTENNA_c343_A
*1646 ANTENNA_c343_B
*1647 ANTENNA_c344_B
*1648 ANTENNA_c345_A
*1649 ANTENNA_c345_D_N
*1650 ANTENNA_c346_B
*1651 ANTENNA_c348_B
*1652 ANTENNA_c348_C_N
*1653 ANTENNA_c348_D_N
*1654 ANTENNA_c349_B1
*1655 ANTENNA_c349_C1
*1656 ANTENNA_c350_A2
*1657 ANTENNA_c350_B1
*1658 ANTENNA_c351_A2
*1659 ANTENNA_c351_A3
*1660 ANTENNA_c351_S0
*1661 ANTENNA_c351_S1
*1662 ANTENNA_c352_A2
*1663 ANTENNA_c352_B1
*1664 ANTENNA_c352_C1
*1665 ANTENNA_c353_A
*1666 ANTENNA_c353_B
*1667 ANTENNA_c354_A
*1668 ANTENNA_c354_B
*1669 ANTENNA_c354_X
*1670 ANTENNA_c355_CLK
*1671 ANTENNA_c355_D
*1672 ANTENNA_c355_RESET_B
*1673 ANTENNA_c355_SCD
*1674 ANTENNA_c355_SCE
*1675 ANTENNA_c356_B
*1676 ANTENNA_c356_C
*1677 ANTENNA_c358_A
*1678 ANTENNA_c358_B
*1679 ANTENNA_c359_A
*1680 ANTENNA_c360_A
*1681 ANTENNA_c360_B
*1682 ANTENNA_c360_D_N
*1683 ANTENNA_c361_A
*1684 ANTENNA_c361_B
*1685 ANTENNA_c361_C
*1686 ANTENNA_c361_X
*1687 ANTENNA_c363_A1
*1688 ANTENNA_c363_A3
*1689 ANTENNA_c363_S0
*1690 ANTENNA_c364_X
*1691 ANTENNA_c365_A1
*1692 ANTENNA_c365_A2
*1693 ANTENNA_c365_B1
*1694 ANTENNA_c365_C1
*1695 ANTENNA_c366_B
*1696 ANTENNA_c368_B1
*1697 ANTENNA_c369_C1
*1698 ANTENNA_c369_D1
*1699 ANTENNA_c370_SCE
*1700 ANTENNA_c371_X
*1701 ANTENNA_c372_A0
*1702 ANTENNA_c372_A1
*1703 ANTENNA_c372_A2
*1704 ANTENNA_c372_A3
*1705 ANTENNA_c373_Q
*1706 ANTENNA_c373_RESET_B
*1707 ANTENNA_c373_SCE
*1708 ANTENNA_c392_A3
*1709 ANTENNA_c392_S1
*1710 ANTENNA_c393_A1
*1711 ANTENNA_c393_A2
*1712 ANTENNA_c393_A3
*1713 ANTENNA_c394_A0
*1714 ANTENNA_c394_A2
*1715 ANTENNA_c394_A3
*1716 ANTENNA_c395_A0
*1717 ANTENNA_c395_A2
*1718 ANTENNA_c396_B
*1719 ANTENNA_c396_C
*1720 ANTENNA_c398_A
*1721 ANTENNA_c400_B
*1722 ANTENNA_c401_CLK
*1723 ANTENNA_c401_D
*1724 ANTENNA_c401_Q
*1725 ANTENNA_c401_Q_N
*1726 ANTENNA_c401_SCD
*1727 ANTENNA_c402_A
*1728 ANTENNA_c402_B
*1729 ANTENNA_c402_D_N
*1730 ANTENNA_c404_A
*1731 ANTENNA_c404_B
*1732 ANTENNA_c406_A
*1733 ANTENNA_c409_CLK_N
*1734 ANTENNA_c409_SCE
*1735 ANTENNA_c409_SET_B
*1736 ANTENNA_c410_C
*1737 ANTENNA_c412_A
*1738 ANTENNA_c413_D_N
*1739 ANTENNA_c414_D_N
*1740 ANTENNA_c416_S1
*1741 ANTENNA_c417_S1
*1742 ANTENNA_c419_A1
*1743 ANTENNA_c419_S0
*1744 ANTENNA_c419_S1
*1745 ANTENNA_c420_B
*1746 ANTENNA_c420_C_N
*1747 ANTENNA_c420_D_N
*1748 ANTENNA_c422_A
*1749 ANTENNA_c423_A
*1750 ANTENNA_c423_X
*1751 ANTENNA_c427_B
*1752 ANTENNA_c430_X
*1753 ANTENNA_c431_A2
*1754 ANTENNA_c431_A3
*1755 ANTENNA_c431_S0
*1756 ANTENNA_c431_S1
*1757 ANTENNA_c432_B
*1758 ANTENNA_c432_C
*1759 ANTENNA_c432_X
*1760 ANTENNA_c433_A
*1761 ANTENNA_c433_B
*1762 ANTENNA_c435_A
*1763 ANTENNA_c435_X
*1764 ANTENNA_c436_X
*1765 ANTENNA_c437_X
*1766 ANTENNA_c438_X
*1767 ANTENNA_c440_Q
*1768 ANTENNA_c440_RESET_B
*1769 ANTENNA_c440_SCD
*1770 ANTENNA_c440_SCE
*1771 ANTENNA_c441_A
*1772 ANTENNA_c441_B
*1773 ANTENNA_c441_D_N
*1774 ANTENNA_c442_B
*1775 ANTENNA_c443_A
*1776 ANTENNA_c443_B
*1777 ANTENNA_c443_C
*1778 ANTENNA_c444_A
*1779 ANTENNA_c444_B
*1780 ANTENNA_c444_C
*1781 ANTENNA_c444_X
*1782 ANTENNA_c445_B
*1783 ANTENNA_c445_X
*1784 ANTENNA_c448_A1
*1785 ANTENNA_c448_B1
*1786 ANTENNA_c449_B
*1787 ANTENNA_c449_C
*1788 ANTENNA_c450_A1
*1789 ANTENNA_c450_A2
*1790 ANTENNA_c450_S0
*1791 ANTENNA_c450_S1
*1792 ANTENNA_c451_Q
*1793 ANTENNA_c451_SCD
*1794 ANTENNA_c451_SCE
*1795 ANTENNA_c452_B
*1796 ANTENNA_c452_C_N
*1797 ANTENNA_c452_X
*1798 ANTENNA_c453_CLK_N
*1799 ANTENNA_c453_Q
*1800 ANTENNA_c453_SCD
*1801 ANTENNA_c454_CLK
*1802 ANTENNA_c454_RESET_B
*1803 ANTENNA_c454_SCD
*1804 ANTENNA_c454_SCE
*1805 ANTENNA_c455_A1
*1806 ANTENNA_c455_A2
*1807 ANTENNA_c455_S0
*1808 ANTENNA_c456_A1
*1809 ANTENNA_c456_A2
*1810 ANTENNA_c456_A3
*1811 ANTENNA_c456_S0
*1812 ANTENNA_c457_A0
*1813 ANTENNA_c457_A1
*1814 ANTENNA_c457_A3
*1815 ANTENNA_c457_S0
*1816 ANTENNA_c458_A1
*1817 ANTENNA_c458_A3
*1818 ANTENNA_c459_A0
*1819 ANTENNA_c459_A2
*1820 ANTENNA_c459_S0
*1821 ANTENNA_c459_S1
*1822 ANTENNA_c460_CLK_N
*1823 ANTENNA_c460_SCE
*1824 ANTENNA_c461_A1
*1825 ANTENNA_c461_S0
*1826 ANTENNA_c462_A1
*1827 ANTENNA_c462_A2
*1828 ANTENNA_c462_C1
*1829 ANTENNA_c463_A1
*1830 ANTENNA_c463_A2
*1831 ANTENNA_c463_A3
*1832 ANTENNA_c463_S0
*1833 ANTENNA_c464_B
*1834 ANTENNA_c464_C_N
*1835 ANTENNA_c465_A1
*1836 ANTENNA_c465_A2
*1837 ANTENNA_c465_C1
*1838 ANTENNA_c466_CLK_N
*1839 ANTENNA_c466_RESET_B
*1840 ANTENNA_c466_SCD
*1841 ANTENNA_c466_SCE
*1842 ANTENNA_c467_A1
*1843 ANTENNA_c467_B1
*1844 ANTENNA_c467_X
*1845 ANTENNA_c468_B