*SPEF "ieee 1481-1999"
*DESIGN "netlist_0"
*DATE "20:36:22 Saturday August 17, 2024"
*VENDOR "The OpenROAD Project"
*PROGRAM "OpenROAD"
*VERSION "d423155d69de7f683a23f6916ead418a615ad4ad"
*DESIGN_FLOW "NAME_SCOPE LOCAL" "PIN_CAP NONE"
*DIVIDER /
*DELIMITER :
*BUS_DELIMITER []
*T_UNIT 1 NS
*C_UNIT 1 PF
*R_UNIT 1 OHM
*L_UNIT 1 HENRY

*NAME_MAP
*3 clk
*4 in0
*5 in1
*6 in10
*7 in11
*8 in12
*9 in13
*10 in14
*11 in15
*12 in16
*13 in17
*14 in18
*15 in19
*16 in2
*17 in20
*18 in21
*19 in22
*20 in23
*21 in24
*22 in3
*23 in4
*24 in5
*25 in6
*26 in7
*27 in8
*28 in9
*29 out0
*30 out1
*31 out10
*32 out11
*33 out12
*34 out13
*35 out14
*36 out15
*37 out16
*38 out17
*39 out18
*40 out19
*41 out2
*42 out20
*43 out21
*44 out22
*45 out23
*46 out24
*47 out3
*48 out4
*49 out5
*50 out6
*51 out7
*52 out8
*53 out9
*54 rst
*55 clknet_0_clk
*56 clknet_0_net158
*57 clknet_0_net160
*58 clknet_0_net165
*59 clknet_0_net166
*60 clknet_0_net171
*61 clknet_0_net242
*62 clknet_0_net250
*63 clknet_0_net251
*64 clknet_0_net252
*65 clknet_0_net253
*66 clknet_0_net255
*67 clknet_0_net258
*68 clknet_0_net260
*69 clknet_0_net261
*70 clknet_0_net287
*71 clknet_0_net290
*72 clknet_0_net294
*73 clknet_0_net356
*74 clknet_0_net359
*75 clknet_0_net390
*76 clknet_0_net398
*77 clknet_0_net399
*78 clknet_0_net401
*79 clknet_0_net402
*80 clknet_0_net432
*81 clknet_0_net449
*82 clknet_0_net463
*83 clknet_0_net517
*84 clknet_0_net539
*85 clknet_0_net596
*86 clknet_0_net757
*87 clknet_0_net814
*88 clknet_1_0__leaf_net158
*89 clknet_1_0__leaf_net160
*90 clknet_1_0__leaf_net165
*91 clknet_1_0__leaf_net166
*92 clknet_1_0__leaf_net171
*93 clknet_1_0__leaf_net242
*94 clknet_1_0__leaf_net250
*95 clknet_1_0__leaf_net251
*96 clknet_1_0__leaf_net252
*97 clknet_1_0__leaf_net253
*98 clknet_1_0__leaf_net255
*99 clknet_1_0__leaf_net258
*100 clknet_1_0__leaf_net260
*101 clknet_1_0__leaf_net261
*102 clknet_1_0__leaf_net287
*103 clknet_1_0__leaf_net290
*104 clknet_1_0__leaf_net294
*105 clknet_1_0__leaf_net356
*106 clknet_1_0__leaf_net359
*107 clknet_1_0__leaf_net390
*108 clknet_1_0__leaf_net398
*109 clknet_1_0__leaf_net399
*110 clknet_1_0__leaf_net401
*111 clknet_1_0__leaf_net402
*112 clknet_1_0__leaf_net432
*113 clknet_1_0__leaf_net449
*114 clknet_1_0__leaf_net463
*115 clknet_1_0__leaf_net517
*116 clknet_1_0__leaf_net539
*117 clknet_1_0__leaf_net596
*118 clknet_1_0__leaf_net757
*119 clknet_1_0__leaf_net814
*120 clknet_1_1__leaf_net158
*121 clknet_1_1__leaf_net160
*122 clknet_1_1__leaf_net165
*123 clknet_1_1__leaf_net166
*124 clknet_1_1__leaf_net171
*125 clknet_1_1__leaf_net242
*126 clknet_1_1__leaf_net250
*127 clknet_1_1__leaf_net251
*128 clknet_1_1__leaf_net252
*129 clknet_1_1__leaf_net253
*130 clknet_1_1__leaf_net255
*131 clknet_1_1__leaf_net258
*132 clknet_1_1__leaf_net260
*133 clknet_1_1__leaf_net261
*134 clknet_1_1__leaf_net287
*135 clknet_1_1__leaf_net290
*136 clknet_1_1__leaf_net294
*137 clknet_1_1__leaf_net356
*138 clknet_1_1__leaf_net359
*139 clknet_1_1__leaf_net390
*140 clknet_1_1__leaf_net398
*141 clknet_1_1__leaf_net399
*142 clknet_1_1__leaf_net401
*143 clknet_1_1__leaf_net402
*144 clknet_1_1__leaf_net432
*145 clknet_1_1__leaf_net449
*146 clknet_1_1__leaf_net463
*147 clknet_1_1__leaf_net517
*148 clknet_1_1__leaf_net539
*149 clknet_1_1__leaf_net596
*150 clknet_1_1__leaf_net757
*151 clknet_1_1__leaf_net814
*152 clknet_2_0__leaf_clk
*153 clknet_2_1__leaf_clk
*154 clknet_2_2__leaf_clk
*155 clknet_2_3__leaf_clk
*156 clknet_leaf_0_clk
*157 clknet_leaf_10_clk
*158 clknet_leaf_11_clk
*159 clknet_leaf_12_clk
*160 clknet_leaf_13_clk
*161 clknet_leaf_14_clk
*162 clknet_leaf_15_clk
*163 clknet_leaf_16_clk
*164 clknet_leaf_17_clk
*165 clknet_leaf_18_clk
*166 clknet_leaf_19_clk
*167 clknet_leaf_1_clk
*168 clknet_leaf_20_clk
*169 clknet_leaf_21_clk
*170 clknet_leaf_22_clk
*171 clknet_leaf_23_clk
*172 clknet_leaf_24_clk
*173 clknet_leaf_25_clk
*174 clknet_leaf_26_clk
*175 clknet_leaf_27_clk
*176 clknet_leaf_28_clk
*177 clknet_leaf_29_clk
*178 clknet_leaf_2_clk
*179 clknet_leaf_30_clk
*180 clknet_leaf_31_clk
*181 clknet_leaf_32_clk
*182 clknet_leaf_33_clk
*183 clknet_leaf_34_clk
*184 clknet_leaf_35_clk
*185 clknet_leaf_36_clk
*186 clknet_leaf_37_clk
*187 clknet_leaf_38_clk
*188 clknet_leaf_39_clk
*189 clknet_leaf_3_clk
*190 clknet_leaf_4_clk
*191 clknet_leaf_5_clk
*192 clknet_leaf_6_clk
*193 clknet_leaf_7_clk
*194 clknet_leaf_8_clk
*195 clknet_leaf_9_clk
*196 net0
*197 net1
*198 net10
*199 net100
*200 net101
*201 net102
*202 net103
*203 net104
*204 net105
*205 net106
*206 net107
*207 net108
*208 net109
*209 net11
*210 net110
*211 net111
*212 net112
*213 net113
*214 net114
*215 net115
*216 net116
*217 net117
*218 net118
*219 net119
*220 net12
*221 net120
*222 net121
*223 net122
*224 net123
*225 net124
*226 net125
*227 net126
*228 net127
*229 net128
*230 net129
*231 net13
*232 net130
*233 net131
*234 net132
*235 net133
*236 net134
*237 net135
*238 net136
*239 net137
*240 net138
*241 net139
*242 net14
*243 net140
*244 net141
*245 net142
*246 net143
*247 net144
*248 net145
*249 net146
*250 net147
*251 net148
*252 net149
*253 net15
*254 net150
*255 net151
*256 net152
*257 net153
*258 net154
*259 net155
*260 net156
*261 net157
*262 net158
*263 net159
*264 net16
*265 net160
*266 net161
*267 net162
*268 net163
*269 net164
*270 net165
*271 net166
*272 net167
*273 net168
*274 net169
*275 net17
*276 net170
*277 net171
*278 net172
*279 net173
*280 net174
*281 net175
*282 net176
*283 net177
*284 net178
*285 net179
*286 net18
*287 net180
*288 net181
*289 net182
*290 net183
*291 net184
*292 net185
*293 net186
*294 net187
*295 net188
*296 net189
*297 net19
*298 net190
*299 net191
*300 net192
*301 net193
*302 net194
*303 net195
*304 net196
*305 net197
*306 net198
*307 net199
*308 net2
*309 net20
*310 net200
*311 net201
*312 net202
*313 net203
*314 net204
*315 net205
*316 net206
*317 net207
*318 net208
*319 net209
*320 net21
*321 net210
*322 net211
*323 net212
*324 net213
*325 net214
*326 net215
*327 net216
*328 net217
*329 net218
*330 net219
*331 net22
*332 net220
*333 net221
*334 net222
*335 net223
*336 net224
*337 net225
*338 net226
*339 net227
*340 net228
*341 net229
*342 net23
*343 net230
*344 net231
*345 net232
*346 net233
*347 net234
*348 net235
*349 net236
*350 net237
*351 net238
*352 net239
*353 net24
*354 net240
*355 net241
*356 net242
*357 net243
*358 net244
*359 net245
*360 net246
*361 net247
*362 net248
*363 net249
*364 net25
*365 net250
*366 net251
*367 net252
*368 net253
*369 net254
*370 net255
*371 net256
*372 net257
*373 net258
*374 net259
*375 net26
*376 net260
*377 net261
*378 net262
*379 net263
*380 net264
*381 net265
*382 net266
*383 net267
*384 net268
*385 net269
*386 net27
*387 net270
*388 net271
*389 net272
*390 net273
*391 net274
*392 net275
*393 net276
*394 net277
*395 net278
*396 net279
*397 net28
*398 net280
*399 net281
*400 net282
*401 net283
*402 net284
*403 net285
*404 net286
*405 net287
*406 net288
*407 net289
*408 net29
*409 net290
*410 net291
*411 net292
*412 net293
*413 net294
*414 net295
*415 net296
*416 net297
*417 net298
*418 net299
*419 net3
*420 net30
*421 net300
*422 net301
*423 net302
*424 net303
*425 net304
*426 net305
*427 net306
*428 net307
*429 net308
*430 net309
*431 net31
*432 net310
*433 net311
*434 net312
*435 net313
*436 net314
*437 net315
*438 net316
*439 net317
*440 net318
*441 net319
*442 net32
*443 net320
*444 net321
*445 net322
*446 net323
*447 net324
*448 net325
*449 net326
*450 net327
*451 net328
*452 net329
*453 net33
*454 net330
*455 net331
*456 net332
*457 net333
*458 net334
*459 net335
*460 net336
*461 net337
*462 net338
*463 net339
*464 net34
*465 net340
*466 net341
*467 net342
*468 net343
*469 net344
*470 net345
*471 net346
*472 net347
*473 net348
*474 net349
*475 net35
*476 net350
*477 net351
*478 net352
*479 net353
*480 net354
*481 net355
*482 net356
*483 net357
*484 net358
*485 net359
*486 net36
*487 net360
*488 net361
*489 net362
*490 net363
*491 net364
*492 net365
*493 net366
*494 net367
*495 net368
*496 net369
*497 net37
*498 net370
*499 net371
*500 net372
*501 net373
*502 net374
*503 net375
*504 net376
*505 net377
*506 net378
*507 net379
*508 net38
*509 net380
*510 net381
*511 net382
*512 net383
*513 net384
*514 net385
*515 net386
*516 net387
*517 net388
*518 net389
*519 net39
*520 net390
*521 net391
*522 net392
*523 net393
*524 net394
*525 net395
*526 net396
*527 net397
*528 net398
*529 net399
*530 net4
*531 net40
*532 net400
*533 net401
*534 net402
*535 net403
*536 net404
*537 net405
*538 net406
*539 net407
*540 net408
*541 net409
*542 net41
*543 net410
*544 net411
*545 net412
*546 net413
*547 net414
*548 net415
*549 net416
*550 net417
*551 net418
*552 net419
*553 net42
*554 net420
*555 net421
*556 net422
*557 net423
*558 net424
*559 net425
*560 net426
*561 net427
*562 net428
*563 net429
*564 net43
*565 net430
*566 net431
*567 net432
*568 net433
*569 net434
*570 net435
*571 net436
*572 net437
*573 net438
*574 net439
*575 net44
*576 net440
*577 net441
*578 net442
*579 net443
*580 net444
*581 net445
*582 net446
*583 net447
*584 net448
*585 net449
*586 net45
*587 net450
*588 net451
*589 net452
*590 net453
*591 net454
*592 net455
*593 net456
*594 net457
*595 net458
*596 net459
*597 net46
*598 net460
*599 net461
*600 net462
*601 net463
*602 net464
*603 net465
*604 net466
*605 net467
*606 net468
*607 net469
*608 net47
*609 net470
*610 net471
*611 net472
*612 net473
*613 net474
*614 net475
*615 net476
*616 net477
*617 net478
*618 net479
*619 net48
*620 net480
*621 net481
*622 net482
*623 net483
*624 net484
*625 net485
*626 net486
*627 net487
*628 net488
*629 net489
*630 net49
*631 net490
*632 net491
*633 net492
*634 net493
*635 net494
*636 net495
*637 net496
*638 net497
*639 net498
*640 net499
*641 net5
*642 net50
*643 net500
*644 net501
*645 net502
*646 net503
*647 net504
*648 net505
*649 net506
*650 net507
*651 net508
*652 net509
*653 net51
*654 net510
*655 net511
*656 net512
*657 net513
*658 net514
*659 net515
*660 net516
*661 net517
*662 net518
*663 net519
*664 net52
*665 net520
*666 net521
*667 net522
*668 net523
*669 net524
*670 net525
*671 net526
*672 net527
*673 net528
*674 net529
*675 net53
*676 net530
*677 net531
*678 net532
*679 net533
*680 net534
*681 net535
*682 net536
*683 net537
*684 net538
*685 net539
*686 net54
*687 net540
*688 net541
*689 net542
*690 net543
*691 net544
*692 net545
*693 net546
*694 net547
*695 net548
*696 net549
*697 net55
*698 net550
*699 net551
*700 net552
*701 net553
*702 net554
*703 net555
*704 net556
*705 net557
*706 net558
*707 net559
*708 net56
*709 net560
*710 net561
*711 net562
*712 net563
*713 net564
*714 net565
*715 net566
*716 net567
*717 net568
*718 net569
*719 net57
*720 net570
*721 net571
*722 net572
*723 net573
*724 net574
*725 net575
*726 net576
*727 net577
*728 net578
*729 net579
*730 net58
*731 net580
*732 net581
*733 net582
*734 net583
*735 net584
*736 net585
*737 net586
*738 net587
*739 net588
*740 net589
*741 net59
*742 net590
*743 net591
*744 net592
*745 net593
*746 net594
*747 net595
*748 net596
*749 net597
*750 net598
*751 net599
*752 net6
*753 net60
*754 net600
*755 net601
*756 net602
*757 net603
*758 net604
*759 net605
*760 net606
*761 net607
*762 net608
*763 net609
*764 net61
*765 net610
*766 net611
*767 net612
*768 net613
*769 net614
*770 net615
*771 net616
*772 net617
*773 net618
*774 net619
*775 net62
*776 net620
*777 net621
*778 net622
*779 net623
*780 net624
*781 net625
*782 net626
*783 net627
*784 net628
*785 net629
*786 net63
*787 net630
*788 net631
*789 net632
*790 net633
*791 net634
*792 net635
*793 net636
*794 net637
*795 net638
*796 net639
*797 net64
*798 net640
*799 net641
*800 net642
*801 net643
*802 net644
*803 net645
*804 net646
*805 net647
*806 net648
*807 net649
*808 net65
*809 net650
*810 net651
*811 net652
*812 net653
*813 net654
*814 net655
*815 net656
*816 net657
*817 net658
*818 net659
*819 net66
*820 net660
*821 net661
*822 net662
*823 net663
*824 net664
*825 net665
*826 net666
*827 net667
*828 net668
*829 net669
*830 net67
*831 net670
*832 net671
*833 net672
*834 net673
*835 net674
*836 net675
*837 net676
*838 net677
*839 net678
*840 net679
*841 net68
*842 net680
*843 net681
*844 net682
*845 net683
*846 net684
*847 net685
*848 net686
*849 net687
*850 net688
*851 net689
*852 net69
*853 net690
*854 net691
*855 net692
*856 net693
*857 net694
*858 net695
*859 net696
*860 net697
*861 net698
*862 net699
*863 net7
*864 net70
*865 net700
*866 net701
*867 net702
*868 net703
*869 net704
*870 net705
*871 net706
*872 net707
*873 net708
*874 net709
*875 net71
*876 net710
*877 net711
*878 net712
*879 net713
*880 net714
*881 net715
*882 net716
*883 net717
*884 net718
*885 net719
*886 net72
*887 net720
*888 net721
*889 net722
*890 net723
*891 net724
*892 net725
*893 net726
*894 net727
*895 net728
*896 net729
*897 net73
*898 net730
*899 net731
*900 net732
*901 net733
*902 net734
*903 net735
*904 net736
*905 net737
*906 net738
*907 net739
*908 net74
*909 net740
*910 net741
*911 net742
*912 net743
*913 net744
*914 net745
*915 net746
*916 net747
*917 net748
*918 net749
*919 net75
*920 net750
*921 net751
*922 net752
*923 net753
*924 net754
*925 net755
*926 net756
*927 net757
*928 net758
*929 net759
*930 net76
*931 net760
*932 net761
*933 net762
*934 net763
*935 net764
*936 net765
*937 net766
*938 net767
*939 net768
*940 net769
*941 net77
*942 net770
*943 net771
*944 net772
*945 net773
*946 net774
*947 net775
*948 net776
*949 net777
*950 net778
*951 net779
*952 net78
*953 net780
*954 net781
*955 net782
*956 net783
*957 net784
*958 net785
*959 net786
*960 net787
*961 net788
*962 net789
*963 net79
*964 net790
*965 net791
*966 net792
*967 net793
*968 net794
*969 net795
*970 net796
*971 net797
*972 net798
*973 net799
*974 net8
*975 net80
*976 net800
*977 net801
*978 net802
*979 net803
*980 net804
*981 net805
*982 net806
*983 net807
*984 net808
*985 net809
*986 net81
*987 net810
*988 net811
*989 net812
*990 net813
*991 net814
*992 net815
*993 net816
*994 net817
*995 net818
*996 net819
*997 net82
*998 net820
*999 net821
*1000 net822
*1001 net823
*1002 net824
*1003 net825
*1004 net826
*1005 net827
*1006 net828
*1007 net829
*1008 net83
*1009 net830
*1010 net831
*1011 net832
*1012 net833
*1013 net834
*1014 net835
*1015 net836
*1016 net837
*1017 net838
*1018 net839
*1019 net84
*1020 net840
*1021 net841
*1022 net842
*1023 net843
*1024 net844
*1025 net845
*1026 net846
*1027 net847
*1028 net848
*1029 net849
*1030 net85
*1031 net850
*1032 net851
*1033 net852
*1034 net853
*1035 net854
*1036 net855
*1037 net856
*1038 net857
*1039 net858
*1040 net859
*1041 net86
*1042 net860
*1043 net861
*1044 net862
*1045 net863
*1046 net864
*1047 net865
*1048 net866
*1049 net867
*1050 net868
*1051 net869
*1052 net87
*1053 net871
*1054 net872
*1055 net873
*1056 net874
*1057 net875
*1058 net876
*1059 net877
*1060 net878
*1061 net879
*1062 net88
*1063 net880
*1064 net881
*1065 net882
*1066 net883
*1067 net884
*1068 net885
*1069 net886
*1070 net887
*1071 net888
*1072 net889
*1073 net89
*1074 net890
*1075 net891
*1076 net892
*1077 net893
*1078 net894
*1079 net895
*1080 net896
*1081 net897
*1082 net898
*1083 net899
*1084 net9
*1085 net90
*1086 net900
*1087 net901
*1088 net902
*1089 net903
*1090 net904
*1091 net905
*1092 net906
*1093 net907
*1094 net908
*1095 net909
*1096 net91
*1097 net910
*1098 net911
*1099 net912
*1100 net913
*1101 net914
*1102 net915
*1103 net916
*1104 net917
*1105 net918
*1106 net919
*1107 net92
*1108 net920
*1109 net921
*1110 net922
*1111 net923
*1112 net924
*1113 net925
*1114 net926
*1115 net927
*1116 net928
*1117 net929
*1118 net93
*1119 net930
*1120 net931
*1121 net932
*1122 net933
*1123 net934
*1124 net935
*1125 net936
*1126 net937
*1127 net938
*1128 net939
*1129 net94
*1130 net940
*1131 net941
*1132 net942
*1133 net943
*1134 net944
*1135 net945
*1136 net946
*1137 net947
*1138 net948
*1139 net949
*1140 net95
*1141 net950
*1142 net951
*1143 net952
*1144 net953
*1145 net954
*1146 net955
*1147 net956
*1148 net957
*1149 net958
*1150 net959
*1151 net96
*1152 net960
*1153 net961
*1154 net962
*1155 net963
*1156 net964
*1157 net965
*1158 net966
*1159 net967
*1160 net968
*1161 net969
*1162 net97
*1163 net970
*1164 net971
*1165 net972
*1166 net973
*1167 net974
*1168 net975
*1169 net976
*1170 net977
*1171 net978
*1172 net979
*1173 net98
*1174 net980
*1175 net981
*1176 net982
*1177 net983
*1178 net984
*1179 net985
*1180 net986
*1181 net987
*1182 net988
*1183 net989
*1184 net99
*1185 net990
*1186 net991
*1187 net992
*1188 net993
*1189 net994
*1190 net995
*1191 net996
*1192 net997
*1193 ANTENNA_1
*1194 ANTENNA_c100_X
*1195 ANTENNA_c102_A2
*1196 ANTENNA_c102_A3
*1197 ANTENNA_c103_X
*1198 ANTENNA_c104_SCD
*1199 ANTENNA_c105_A
*1200 ANTENNA_c106_SCD
*1201 ANTENNA_c114_B
*1202 ANTENNA_c115_B
*1203 ANTENNA_c117_D_N
*1204 ANTENNA_c125_A
*1205 ANTENNA_c126_X
*1206 ANTENNA_c127_A
*1207 ANTENNA_c127_B
*1208 ANTENNA_c127_X
*1209 ANTENNA_c128_A
*1210 ANTENNA_c128_X
*1211 ANTENNA_c129_B
*1212 ANTENNA_c130_B
*1213 ANTENNA_c130_X
*1214 ANTENNA_c131_A
*1215 ANTENNA_c131_B
*1216 ANTENNA_c131_X
*1217 ANTENNA_c132_A
*1218 ANTENNA_c132_B
*1219 ANTENNA_c133_X
*1220 ANTENNA_c134_A
*1221 ANTENNA_c135_X
*1222 ANTENNA_c136_D
*1223 ANTENNA_c136_RESET_B
*1224 ANTENNA_c138_D
*1225 ANTENNA_c139_Q
*1226 ANTENNA_c140_B
*1227 ANTENNA_c140_X
*1228 ANTENNA_c141_D
*1229 ANTENNA_c142_A
*1230 ANTENNA_c142_X
*1231 ANTENNA_c143_A
*1232 ANTENNA_c143_B
*1233 ANTENNA_c144_A3
*1234 ANTENNA_c144_S0
*1235 ANTENNA_c144_S1
*1236 ANTENNA_c145_B
*1237 ANTENNA_c145_X
*1238 ANTENNA_c148_A
*1239 ANTENNA_c150_A
*1240 ANTENNA_c150_B
*1241 ANTENNA_c152_B
*1242 ANTENNA_c154_X
*1243 ANTENNA_c155_X
*1244 ANTENNA_c156_RESET_B
*1245 ANTENNA_c157_B
*1246 ANTENNA_c158_X
*1247 ANTENNA_c159_C
*1248 ANTENNA_c162_X
*1249 ANTENNA_c163_Q
*1250 ANTENNA_c163_SCD
*1251 ANTENNA_c164_Q
*1252 ANTENNA_c164_Q_N
*1253 ANTENNA_c164_RESET_B
*1254 ANTENNA_c164_SCE
*1255 ANTENNA_c164_SET_B
*1256 ANTENNA_c165_A2
*1257 ANTENNA_c165_A3
*1258 ANTENNA_c165_S1
*1259 ANTENNA_c165_X
*1260 ANTENNA_c166_D
*1261 ANTENNA_c168_X
*1262 ANTENNA_c169_A
*1263 ANTENNA_c169_B
*1264 ANTENNA_c169_C
*1265 ANTENNA_c171_B
*1266 ANTENNA_c173_DE
*1267 ANTENNA_c174_GATE
*1268 ANTENNA_c175_GCLK
*1269 ANTENNA_c176_GATE
*1270 ANTENNA_c176_SCE
*1271 ANTENNA_c179_Q
*1272 ANTENNA_c182_B
*1273 ANTENNA_c183_S0
*1274 ANTENNA_c184_B
*1275 ANTENNA_c184_X
*1276 ANTENNA_c185_SCE
*1277 ANTENNA_c186_A0
*1278 ANTENNA_c186_A1
*1279 ANTENNA_c186_A2
*1280 ANTENNA_c186_S0
*1281 ANTENNA_c190_X
*1282 ANTENNA_c191_B
*1283 ANTENNA_c192_D
*1284 ANTENNA_c193_SCE
*1285 ANTENNA_c194_D
*1286 ANTENNA_c199_B
*1287 ANTENNA_c200_SCE
*1288 ANTENNA_c202_X
*1289 ANTENNA_c205_B
*1290 ANTENNA_c207_A
*1291 ANTENNA_c208_D
*1292 ANTENNA_c209_RESET_B
*1293 ANTENNA_c210_B
*1294 ANTENNA_c211_D
*1295 ANTENNA_c213_D
*1296 ANTENNA_c214_B
*1297 ANTENNA_c215_A
*1298 ANTENNA_c217_SET_B
*1299 ANTENNA_c225_D
*1300 ANTENNA_c225_Q
*1301 ANTENNA_c225_Q_N
*1302 ANTENNA_c225_RESET_B
*1303 ANTENNA_c226_B
*1304 ANTENNA_c227_D
*1305 ANTENNA_c227_SET_B
*1306 ANTENNA_c229_RESET_B
*1307 ANTENNA_c230_B1
*1308 ANTENNA_c230_C1
*1309 ANTENNA_c231_D
*1310 ANTENNA_c234_A
*1311 ANTENNA_c238_B
*1312 ANTENNA_c240_B
*1313 ANTENNA_c242_C
*1314 ANTENNA_c248_B
*1315 ANTENNA_c248_D_N
*1316 ANTENNA_c249_DE
*1317 ANTENNA_c256_X
*1318 ANTENNA_c258_A
*1319 ANTENNA_c258_B
*1320 ANTENNA_c258_X
*1321 ANTENNA_c259_SCE
*1322 ANTENNA_c260_A
*1323 ANTENNA_c263_A
*1324 ANTENNA_c26_B
*1325 ANTENNA_c26_X
*1326 ANTENNA_c270_SCE
*1327 ANTENNA_c271_X
*1328 ANTENNA_c272_A2
*1329 ANTENNA_c272_S0
*1330 ANTENNA_c276_X
*1331 ANTENNA_c277_X
*1332 ANTENNA_c278_D
*1333 ANTENNA_c278_RESET_B
*1334 ANTENNA_c279_B
*1335 ANTENNA_c279_X
*1336 ANTENNA_c281_D
*1337 ANTENNA_c282_B
*1338 ANTENNA_c282_X
*1339 ANTENNA_c283_D
*1340 ANTENNA_c286_A
*1341 ANTENNA_c287_SCE
*1342 ANTENNA_c288_S0
*1343 ANTENNA_c288_S1
*1344 ANTENNA_c289_Q
*1345 ANTENNA_c289_SCD
*1346 ANTENNA_c28_B
*1347 ANTENNA_c291_D
*1348 ANTENNA_c292_X
*1349 ANTENNA_c293_B
*1350 ANTENNA_c293_X
*1351 ANTENNA_c294_B
*1352 ANTENNA_c295_A
*1353 ANTENNA_c295_B
*1354 ANTENNA_c295_X
*1355 ANTENNA_c296_SCE
*1356 ANTENNA_c296_SET_B
*1357 ANTENNA_c297_B
*1358 ANTENNA_c297_X
*1359 ANTENNA_c298_B
*1360 ANTENNA_c29_A
*1361 ANTENNA_c29_X
*1362 ANTENNA_c301_Q
*1363 ANTENNA_c302_A
*1364 ANTENNA_c302_X
*1365 ANTENNA_c303_A1
*1366 ANTENNA_c303_B1
*1367 ANTENNA_c303_C1
*1368 ANTENNA_c304_A3
*1369 ANTENNA_c304_S0
*1370 ANTENNA_c304_S1
*1371 ANTENNA_c305_Q
*1372 ANTENNA_c306_A
*1373 ANTENNA_c306_B
*1374 ANTENNA_c307_B
*1375 ANTENNA_c307_X
*1376 ANTENNA_c308_A
*1377 ANTENNA_c308_B
*1378 ANTENNA_c309_X
*1379 ANTENNA_c30_A
*1380 ANTENNA_c30_X
*1381 ANTENNA_c310_D
*1382 ANTENNA_c310_RESET_B
*1383 ANTENNA_c310_SET_B
*1384 ANTENNA_c311_SET_B
*1385 ANTENNA_c313_A1
*1386 ANTENNA_c313_A2
*1387 ANTENNA_c314_D
*1388 ANTENNA_c315_A1
*1389 ANTENNA_c315_A3
*1390 ANTENNA_c315_S0
*1391 ANTENNA_c315_S1
*1392 ANTENNA_c316_B
*1393 ANTENNA_c319_B
*1394 ANTENNA_c31_X
*1395 ANTENNA_c320_B
*1396 ANTENNA_c322_SET_B
*1397 ANTENNA_c323_A
*1398 ANTENNA_c324_B
*1399 ANTENNA_c327_SCD
*1400 ANTENNA_c328_B
*1401 ANTENNA_c32_B
*1402 ANTENNA_c32_X
*1403 ANTENNA_c330_B
*1404 ANTENNA_c330_X
*1405 ANTENNA_c331_SCD
*1406 ANTENNA_c332_SET_B
*1407 ANTENNA_c333_B
*1408 ANTENNA_c334_S1
*1409 ANTENNA_c335_B
*1410 ANTENNA_c335_X
*1411 ANTENNA_c336_A
*1412 ANTENNA_c336_B
*1413 ANTENNA_c339_A
*1414 ANTENNA_c339_B
*1415 ANTENNA_c33_A
*1416 ANTENNA_c340_SCD
*1417 ANTENNA_c340_SCE
*1418 ANTENNA_c343_B
*1419 ANTENNA_c343_C
*1420 ANTENNA_c344_SCE
*1421 ANTENNA_c345_D
*1422 ANTENNA_c347_SET_B
*1423 ANTENNA_c349_SCE
*1424 ANTENNA_c34_A
*1425 ANTENNA_c34_X
*1426 ANTENNA_c350_B
*1427 ANTENNA_c351_B
*1428 ANTENNA_c352_B
*1429 ANTENNA_c352_D_N
*1430 ANTENNA_c352_X
*1431 ANTENNA_c353_D
*1432 ANTENNA_c354_D
*1433 ANTENNA_c354_RESET_B
*1434 ANTENNA_c354_SET_B
*1435 ANTENNA_c356_D
*1436 ANTENNA_c356_SET_B
*1437 ANTENNA_c358_D
*1438 ANTENNA_c359_A
*1439 ANTENNA_c35_B
*1440 ANTENNA_c35_C
*1441 ANTENNA_c360_RESET_B
*1442 ANTENNA_c367_RESET_B
*1443 ANTENNA_c36_X
*1444 ANTENNA_c370_SCE
*1445 ANTENNA_c372_A
*1446 ANTENNA_c373_A2
*1447 ANTENNA_c376_A0
*1448 ANTENNA_c376_A3
*1449 ANTENNA_c378_B
*1450 ANTENNA_c378_X
*1451 ANTENNA_c379_X
*1452 ANTENNA_c37_B
*1453 ANTENNA_c380_X
*1454 ANTENNA_c381_X
*1455 ANTENNA_c382_A
*1456 ANTENNA_c382_X
*1457 ANTENNA_c383_A
*1458 ANTENNA_c383_X
*1459 ANTENNA_c384_A
*1460 ANTENNA_c384_X
*1461 ANTENNA_c385_A
*1462 ANTENNA_c385_B
*1463 ANTENNA_c387_D
*1464 ANTENNA_c388_Q
*1465 ANTENNA_c388_RESET_B
*1466 ANTENNA_c389_A
*1467 ANTENNA_c38_B
*1468 ANTENNA_c38_X
*1469 ANTENNA_c390_B
*1470 ANTENNA_c391_A2
*1471 ANTENNA_c391_S0
*1472 ANTENNA_c391_S1
*1473 ANTENNA_c393_A
*1474 ANTENNA_c394_B
*1475 ANTENNA_c396_Q
*1476 ANTENNA_c397_SCD
*1477 ANTENNA_c39_X
*1478 ANTENNA_c401_B
*1479 ANTENNA_c403_B
*1480 ANTENNA_c404_B
*1481 ANTENNA_c404_C
*1482 ANTENNA_c405_B
*1483 ANTENNA_c405_X
*1484 ANTENNA_c408_DE
*1485 ANTENNA_c408_Q
*1486 ANTENNA_c40_A
*1487 ANTENNA_c40_C
*1488 ANTENNA_c411_X
*1489 ANTENNA_c412_C
*1490 ANTENNA_c413_A
*1491 ANTENNA_c413_B
*1492 ANTENNA_c414_D
*1493 ANTENNA_c414_SCD
*1494 ANTENNA_c414_SCE
*1495 ANTENNA_c415_SCD
*1496 ANTENNA_c417_SCE
*1497 ANTENNA_c418_Q_N
*1498 ANTENNA_c418_SCD
*1499 ANTENNA_c418_SCE
*1500 ANTENNA_c418_SET_B
*1501 ANTENNA_c419_B1
*1502 ANTENNA_c419_D1
*1503 ANTENNA_c41_RESET_B
*1504 ANTENNA_c420_SCD
*1505 ANTENNA_c423_SCE
*1506 ANTENNA_c424_SCE
*1507 ANTENNA_c425_GATE
*1508 ANTENNA_c426_RESET_B
*1509 ANTENNA_c427_D
*1510 ANTENNA_c427_SCD
*1511 ANTENNA_c428_B
*1512 ANTENNA_c430_RESET_B
*1513 ANTENNA_c431_B
*1514 ANTENNA_c435_D
*1515 ANTENNA_c435_SCE
*1516 ANTENNA_c436_D
*1517 ANTENNA_c436_Q
*1518 ANTENNA_c436_RESET_B
*1519 ANTENNA_c438_A3
*1520 ANTENNA_c438_S1
*1521 ANTENNA_c439_A1
*1522 ANTENNA_c439_A3
*1523 ANTENNA_c439_S0
*1524 ANTENNA_c440_RESET_B
*1525 ANTENNA_c441_C
*1526 ANTENNA_c442_B
*1527 ANTENNA_c447_Q_N
*1528 ANTENNA_c447_RESET_B
*1529 ANTENNA_c448_D
*1530 ANTENNA_c448_SET_B
*1531 ANTENNA_c450_RESET_B
*1532 ANTENNA_c450_SET_B
*1533 ANTENNA_c452_SCE
*1534 ANTENNA_c454_A2
*1535 ANTENNA_c454_C1
*1536 ANTENNA_c455_B1
*1537 ANTENNA_c458_Q
*1538 ANTENNA_c458_SCE
*1539 ANTENNA_c45_X
*1540 ANTENNA_c461_A2
*1541 ANTENNA_c461_B1
*1542 ANTENNA_c461_D1
*1543 ANTENNA_c461_X
*1544 ANTENNA_c462_C_N
*1545 ANTENNA_c462_D_N
*1546 ANTENNA_c463_B
*1547 ANTENNA_c463_C
*1548 ANTENNA_c463_X
*1549 ANTENNA_c464_D
*1550 ANTENNA_c464_SCD
*1551 ANTENNA_c464_SCE
*1552 ANTENNA_c465_B1
*1553 ANTENNA_c465_C1
*1554 ANTENNA_c466_A
*1555 ANTENNA_c466_C_N
*1556 ANTENNA_c467_D
*1557 ANTENNA_c467_SCE
*1558 ANTENNA_c468_SET_B
*1559 ANTENNA_c469_B
*1560 ANTENNA_c471_B
*1561 ANTENNA_c472_A
*1562 ANTENNA_c474_RESET_B
*1563 ANTENNA_c474_SCD
*1564 ANTENNA_c475_SET_B
*1565 ANTENNA_c477_Q
*1566 ANTENNA_c47_X
*1567 ANTENNA_c480_SCD
*1568 ANTENNA_c480_SCE
*1569 ANTENNA_c481_SCE
*1570 ANTENNA_c489_C
*1571 ANTENNA_c48_A
*1572 ANTENNA_c48_B
*1573 ANTENNA_c490_B
*1574 ANTENNA_c491_B
*1575 ANTENNA_c491_C
*1576 ANTENNA_c492_SCD
*1577 ANTENNA_c494_B
*1578 ANTENNA_c495_SCD
*1579 ANTENNA_c495_SCE
*1580 ANTENNA_c496_C
*1581 ANTENNA_c500_C
*1582 ANTENNA_c503_C
*1583 ANTENNA_c504_A
*1584 ANTENNA_c504_X
*1585 ANTENNA_c505_Q
*1586 ANTENNA_c505_SET_B
*1587 ANTENNA_c506_D
*1588 ANTENNA_c506_Q
*1589 ANTENNA_c506_SET_B
*1590 ANTENNA_c507_D
*1591 ANTENNA_c507_RESET_B
*1592 ANTENNA_c50_A
*1593 ANTENNA_c50_X
*1594 ANTENNA_c510_A
*1595 ANTENNA_c512_B
*1596 ANTENNA_c513_A
*1597 ANTENNA_c513_C
*1598 ANTENNA_c516_RESET_B
*1599 ANTENNA_c519_B
*1600 ANTENNA_c51_X
*1601 ANTENNA_c521_Q
*1602 ANTENNA_c522_RESET_B
*1603 ANTENNA_c523_RESET_B
*1604 ANTENNA_c524_B
*1605 ANTENNA_c525_A
*1606 ANTENNA_c525_B
*1607 ANTENNA_c527_A
*1608 ANTENNA_c527_B
*1609 ANTENNA_c528_B
*1610 ANTENNA_c529_B
*1611 ANTENNA_c52_B
*1612 ANTENNA_c530_B
*1613 ANTENNA_c531_X
*1614 ANTENNA_c532_RESET_B
*1615 ANTENNA_c533_B
*1616 ANTENNA_c534_RESET_B
*1617 ANTENNA_c535_B
*1618 ANTENNA_c536_DE
*1619 ANTENNA_c537_DE
*1620 ANTENNA_c538_SCE
*1621 ANTENNA_c539_X
*1622 ANTENNA_c540_B
*1623 ANTENNA_c542_SCE
*1624 ANTENNA_c543_D
*1625 ANTENNA_c543_SCE
*1626 ANTENNA_c544_A3
*1627 ANTENNA_c544_S1
*1628 ANTENNA_c545_SCD
*1629 ANTENNA_c545_SCE
*1630 ANTENNA_c546_B
*1631 ANTENNA_c547_D
*1632 ANTENNA_c547_SCD
*1633 ANTENNA_c548_X
*1634 ANTENNA_c549_D
*1635 ANTENNA_c549_SCE
*1636 ANTENNA_c54_RESET_B
*1637 ANTENNA_c550_SCD
*1638 ANTENNA_c550_SCE
*1639 ANTENNA_c550_SET_B
*1640 ANTENNA_c551_C
*1641 ANTENNA_c552_B
*1642 ANTENNA_c553_A
*1643 ANTENNA_c553_B
*1644 ANTENNA_c554_B
*1645 ANTENNA_c556_A
*1646 ANTENNA_c556_B
*1647 ANTENNA_c557_A
*1648 ANTENNA_c558_SCD
*1649 ANTENNA_c558_SCE
*1650 ANTENNA_c559_B
*1651 ANTENNA_c559_X
*1652 ANTENNA_c560_B
*1653 ANTENNA_c562_B
*1654 ANTENNA_c564_A1
*1655 ANTENNA_c564_A2
*1656 ANTENNA_c564_A3
*1657 ANTENNA_c564_S0
*1658 ANTENNA_c564_S1
*1659 ANTENNA_c567_X
*1660 ANTENNA_c568_A1
*1661 ANTENNA_c568_A2
*1662 ANTENNA_c568_B1
*1663 ANTENNA_c568_C1
*1664 ANTENNA_c568_D1
*1665 ANTENNA_c56_C
*1666 ANTENNA_c570_B
*1667 ANTENNA_c571_B
*1668 ANTENNA_c573_D1
*1669 ANTENNA_c573_X
*1670 ANTENNA_c574_A2
*1671 ANTENNA_c574_A3
*1672 ANTENNA_c574_S0
*1673 ANTENNA_c574_S1
*1674 ANTENNA_c576_D
*1675 ANTENNA_c576_SCE
*1676 ANTENNA_c577_A1
*1677 ANTENNA_c577_A3
*1678 ANTENNA_c577_S0
*1679 ANTENNA_c578_A
*1680 ANTENNA_c578_C
*1681 ANTENNA_c579_A3
*1682 ANTENNA_c579_S0
*1683 ANTENNA_c581_A
*1684 ANTENNA_c582_C
*1685 ANTENNA_c586_C
*1686 ANTENNA_c588_SET_B
*1687 ANTENNA_c589_B
*1688 ANTENNA_c589_C
*1689 ANTENNA_c590_D
*1690 ANTENNA_c591_D
*1691 ANTENNA_c591_SCE
*1692 ANTENNA_c593_B
*1693 ANTENNA_c594_D_N
*1694 ANTENNA_c595_S1
*1695 ANTENNA_c596_RESET_B
*1696 ANTENNA_c596_SCD
*1697 ANTENNA_c598_A0
*1698 ANTENNA_c598_S1
*1699 ANTENNA_c599_SCD
*1700 ANTENNA_c599_SCE
*1701 ANTENNA_c59_B
*1702 ANTENNA_c59_X
*1703 ANTENNA_c600_SET_B
*1704 ANTENNA_c603_B
*1705 ANTENNA_c606_A
*1706 ANTENNA_c607_SCE
*1707 ANTENNA_c608_SCE
*1708 ANTENNA_c633_D
*1709 ANTENNA_c633_RESET_B
*1710 ANTENNA_c634_A
*1711 ANTENNA_c634_B
*1712 ANTENNA_c636_A
*1713 ANTENNA_c637_B
*1714 ANTENNA_c638_A
*1715 ANTENNA_c644_D
*1716 ANTENNA_c646_X
*1717 ANTENNA_c649_C_N
*1718 ANTENNA_c64_B
*1719 ANTENNA_c650_A2
*1720 ANTENNA_c650_C1
*1721 ANTENNA_c650_D1
*1722 ANTENNA_c650_X
*1723 ANTENNA_c654_B
*1724 ANTENNA_c655_X
*1725 ANTENNA_c656_B
*1726 ANTENNA_c657_SCE
*1727 ANTENNA_c657_SET_B
*1728 ANTENNA_c658_SET_B
*1729 ANTENNA_c661_SET_B
*1730 ANTENNA_c663_Q
*1731 ANTENNA_c663_SCD
*1732 ANTENNA_c663_SCE
*1733 ANTENNA_c664_SCE
*1734 ANTENNA_c665_C
*1735 ANTENNA_c667_X
*1736 ANTENNA_c668_SCD
*1737 ANTENNA_c668_SCE
*1738 ANTENNA_c669_D
*1739 ANTENNA_c669_SCE
*1740 ANTENNA_c669_SET_B
*1741 ANTENNA_c66_B
*1742 ANTENNA_c671_X
*1743 ANTENNA_c672_A
*1744 ANTENNA_c672_B
*1745 ANTENNA_c673_RESET_B
*1746 ANTENNA_c674_A
*1747 ANTENNA_c676_A
*1748 ANTENNA_c676_B
*1749 ANTENNA_c678_A1
*1750 ANTENNA_c678_A3
*1751 ANTENNA_c678_S0
*1752 ANTENNA_c678_S1
*1753 ANTENNA_c679_A
*1754 ANTENNA_c679_C_N
*1755 ANTENNA_c679_D_N
*1756 ANTENNA_c67_A
*1757 ANTENNA_c680_B
*1758 ANTENNA_c682_C
*1759 ANTENNA_c683_A
*1760 ANTENNA_c685_A
*1761 ANTENNA_c687_RESET_B
*1762 ANTENNA_c688_D
*1763 ANTENNA_c688_SCD
*1764 ANTENNA_c689_RESET_B
*1765 ANTENNA_c690_C
*1766 ANTENNA_c692_SCE
*1767 ANTENNA_c693_D
*1768 ANTENNA_c693_SCD
*1769 ANTENNA_c694_D
*1770 ANTENNA_c695_Q
*1771 ANTENNA_c695_SCE
*1772 ANTENNA_c696_C
*1773 ANTENNA_c697_RESET_B
*1774 ANTENNA_c697_SCE
*1775 ANTENNA_c697_SET_B
*1776 ANTENNA_c698_SCD
*1777 ANTENNA_c699_D
*1778 ANTENNA_c702_C
*1779 ANTENNA_c703_D
*1780 ANTENNA_c704_SET_B
*1781 ANTENNA_c705_A0
*1782 ANTENNA_c705_A3
*1783 ANTENNA_c705_S1
*1784 ANTENNA_c706_A
*1785 ANTENNA_c706_C
*1786 ANTENNA_c707_A
*1787 ANTENNA_c707_X
*1788 ANTENNA_c708_A
*1789 ANTENNA_c708_C
*1790 ANTENNA_c709_A0
*1791 ANTENNA_c709_A3
*1792 ANTENNA_c709_S0
*1793 ANTENNA_c709_S1
*1794 ANTENNA_c70_X
*1795 ANTENNA_c710_D
*1796 ANTENNA_c711_S0
*1797 ANTENNA_c712_A
*1798 ANTENNA_c713_SCD
*1799 ANTENNA_c713_SCE
*1800 ANTENNA_c713_SET_B
*1801 ANTENNA_c714_A1
*1802 ANTENNA_c714_C1
*1803 ANTENNA_c714_D1
*1804 ANTENNA_c715_D
*1805 ANTENNA_c715_SCD
*1806 ANTENNA_c715_SCE
*1807 ANTENNA_c716_D
*1808 ANTENNA_c716_RESET_B
*1809 ANTENNA_c716_SCE
*1810 ANTENNA_c716_SET_B
*1811 ANTENNA_c717_SCD