*SPEF "ieee 1481-1999"
*DESIGN "netlist_1"
*DATE "16:49:50 Monday July 29, 2024"
*VENDOR "The OpenROAD Project"
*PROGRAM "OpenROAD"
*VERSION "d423155d69de7f683a23f6916ead418a615ad4ad"
*DESIGN_FLOW "NAME_SCOPE LOCAL" "PIN_CAP NONE"
*DIVIDER /
*DELIMITER :
*BUS_DELIMITER []
*T_UNIT 1 NS
*C_UNIT 1 PF
*R_UNIT 1 OHM
*L_UNIT 1 HENRY

*NAME_MAP
*3 clk
*4 in0
*5 in1
*6 in10
*7 in11
*8 in12
*9 in13
*10 in14
*11 in15
*12 in16
*13 in17
*14 in18
*15 in19
*16 in2
*17 in20
*18 in21
*19 in22
*20 in23
*21 in24
*22 in25
*23 in26
*24 in27
*25 in28
*26 in29
*27 in3
*28 in30
*29 in31
*30 in32
*31 in33
*32 in34
*33 in35
*34 in36
*35 in37
*36 in38
*37 in39
*38 in4
*39 in40
*40 in41
*41 in42
*42 in43
*43 in44
*44 in45
*45 in46
*46 in47
*47 in48
*48 in49
*49 in5
*50 in50
*51 in51
*52 in52
*53 in53
*54 in54
*55 in55
*56 in56
*57 in57
*58 in58
*59 in59
*60 in6
*61 in60
*62 in61
*63 in7
*64 in8
*65 in9
*66 out0
*67 out1
*68 out10
*69 out11
*70 out12
*71 out13
*72 out14
*73 out15
*74 out16
*75 out17
*76 out18
*77 out19
*78 out2
*79 out20
*80 out21
*81 out22
*82 out23
*83 out24
*84 out25
*85 out26
*86 out27
*87 out28
*88 out29
*89 out3
*90 out30
*91 out31
*92 out32
*93 out33
*94 out34
*95 out35
*96 out36
*97 out37
*98 out38
*99 out39
*100 out4
*101 out40
*102 out41
*103 out42
*104 out43
*105 out44
*106 out45
*107 out46
*108 out47
*109 out48
*110 out49
*111 out5
*112 out50
*113 out51
*114 out52
*115 out53
*116 out54
*117 out55
*118 out56
*119 out57
*120 out58
*121 out59
*122 out6
*123 out60
*124 out61
*125 out7
*126 out8
*127 out9
*128 rst
*129 clknet_0_clk
*130 clknet_0_net154
*131 clknet_0_net168
*132 clknet_0_net344
*133 clknet_0_net350
*134 clknet_0_net353
*135 clknet_0_net359
*136 clknet_0_net372
*137 clknet_0_net373
*138 clknet_0_net376
*139 clknet_0_net445
*140 clknet_0_net446
*141 clknet_0_net464
*142 clknet_0_net469
*143 clknet_0_net477
*144 clknet_0_net480
*145 clknet_0_net482
*146 clknet_0_net507
*147 clknet_0_net567
*148 clknet_0_net595
*149 clknet_0_net622
*150 clknet_0_net707
*151 clknet_0_net708
*152 clknet_0_net710
*153 clknet_0_net744
*154 clknet_0_net752
*155 clknet_0_net753
*156 clknet_0_net754
*157 clknet_0_net769
*158 clknet_0_net770
*159 clknet_0_net771
*160 clknet_0_net789
*161 clknet_0_net806
*162 clknet_0_net884
*163 clknet_0_net887
*164 clknet_0_net889
*165 clknet_0_net892
*166 clknet_0_net919
*167 clknet_0_net930
*168 clknet_1_0__leaf_net154
*169 clknet_1_0__leaf_net168
*170 clknet_1_0__leaf_net344
*171 clknet_1_0__leaf_net350
*172 clknet_1_0__leaf_net353
*173 clknet_1_0__leaf_net359
*174 clknet_1_0__leaf_net372
*175 clknet_1_0__leaf_net373
*176 clknet_1_0__leaf_net376
*177 clknet_1_0__leaf_net445
*178 clknet_1_0__leaf_net446
*179 clknet_1_0__leaf_net464
*180 clknet_1_0__leaf_net469
*181 clknet_1_0__leaf_net477
*182 clknet_1_0__leaf_net480
*183 clknet_1_0__leaf_net482
*184 clknet_1_0__leaf_net507
*185 clknet_1_0__leaf_net567
*186 clknet_1_0__leaf_net595
*187 clknet_1_0__leaf_net622
*188 clknet_1_0__leaf_net707
*189 clknet_1_0__leaf_net708
*190 clknet_1_0__leaf_net710
*191 clknet_1_0__leaf_net744
*192 clknet_1_0__leaf_net752
*193 clknet_1_0__leaf_net753
*194 clknet_1_0__leaf_net754
*195 clknet_1_0__leaf_net769
*196 clknet_1_0__leaf_net770
*197 clknet_1_0__leaf_net771
*198 clknet_1_0__leaf_net789
*199 clknet_1_0__leaf_net806
*200 clknet_1_0__leaf_net884
*201 clknet_1_0__leaf_net887
*202 clknet_1_0__leaf_net889
*203 clknet_1_0__leaf_net892
*204 clknet_1_0__leaf_net919
*205 clknet_1_0__leaf_net930
*206 clknet_1_1__leaf_net154
*207 clknet_1_1__leaf_net168
*208 clknet_1_1__leaf_net344
*209 clknet_1_1__leaf_net350
*210 clknet_1_1__leaf_net353
*211 clknet_1_1__leaf_net359
*212 clknet_1_1__leaf_net372
*213 clknet_1_1__leaf_net373
*214 clknet_1_1__leaf_net376
*215 clknet_1_1__leaf_net445
*216 clknet_1_1__leaf_net446
*217 clknet_1_1__leaf_net464
*218 clknet_1_1__leaf_net469
*219 clknet_1_1__leaf_net477
*220 clknet_1_1__leaf_net480
*221 clknet_1_1__leaf_net482
*222 clknet_1_1__leaf_net507
*223 clknet_1_1__leaf_net567
*224 clknet_1_1__leaf_net595
*225 clknet_1_1__leaf_net622
*226 clknet_1_1__leaf_net707
*227 clknet_1_1__leaf_net708
*228 clknet_1_1__leaf_net710
*229 clknet_1_1__leaf_net744
*230 clknet_1_1__leaf_net752
*231 clknet_1_1__leaf_net753
*232 clknet_1_1__leaf_net754
*233 clknet_1_1__leaf_net769
*234 clknet_1_1__leaf_net770
*235 clknet_1_1__leaf_net771
*236 clknet_1_1__leaf_net789
*237 clknet_1_1__leaf_net806
*238 clknet_1_1__leaf_net884
*239 clknet_1_1__leaf_net887
*240 clknet_1_1__leaf_net889
*241 clknet_1_1__leaf_net892
*242 clknet_1_1__leaf_net919
*243 clknet_1_1__leaf_net930
*244 clknet_4_0_0_clk
*245 clknet_4_10_0_clk
*246 clknet_4_11_0_clk
*247 clknet_4_12_0_clk
*248 clknet_4_13_0_clk
*249 clknet_4_14_0_clk
*250 clknet_4_15_0_clk
*251 clknet_4_1_0_clk
*252 clknet_4_2_0_clk
*253 clknet_4_3_0_clk
*254 clknet_4_4_0_clk
*255 clknet_4_5_0_clk
*256 clknet_4_6_0_clk
*257 clknet_4_7_0_clk
*258 clknet_4_8_0_clk
*259 clknet_4_9_0_clk
*260 net0
*261 net1
*262 net10
*263 net100
*264 net1000
*265 net1001
*266 net1002
*267 net1003
*268 net1004
*269 net1005
*270 net1006
*271 net1007
*272 net1008
*273 net1009
*274 net101
*275 net1010
*276 net1011
*277 net1012
*278 net1013
*279 net1014
*280 net1015
*281 net1016
*282 net1017
*283 net1018
*284 net1019
*285 net102
*286 net1020
*287 net1028
*288 net1029
*289 net103
*290 net1030
*291 net1031
*292 net1032
*293 net1033
*294 net1034
*295 net1035
*296 net1036
*297 net1037
*298 net1038
*299 net1039
*300 net104
*301 net1040
*302 net1041
*303 net1042
*304 net1043
*305 net1044
*306 net1045
*307 net1046
*308 net1047
*309 net1048
*310 net1049
*311 net105
*312 net1050
*313 net1051
*314 net1052
*315 net1053
*316 net1054
*317 net1055
*318 net1056
*319 net1057
*320 net1058
*321 net1059
*322 net106
*323 net1060
*324 net1061
*325 net1062
*326 net1063
*327 net1064
*328 net1065
*329 net1066
*330 net1067
*331 net107
*332 net108
*333 net109
*334 net11
*335 net110
*336 net111
*337 net112
*338 net113
*339 net114
*340 net115
*341 net116
*342 net117
*343 net118
*344 net119
*345 net12
*346 net120
*347 net121
*348 net122
*349 net123
*350 net124
*351 net125
*352 net126
*353 net127
*354 net128
*355 net129
*356 net13
*357 net130
*358 net131
*359 net132
*360 net133
*361 net134
*362 net135
*363 net136
*364 net137
*365 net138
*366 net139
*367 net14
*368 net140
*369 net141
*370 net142
*371 net143
*372 net144
*373 net145
*374 net146
*375 net147
*376 net148
*377 net149
*378 net15
*379 net150
*380 net151
*381 net152
*382 net153
*383 net154
*384 net155
*385 net156
*386 net157
*387 net158
*388 net159
*389 net16
*390 net160
*391 net161
*392 net162
*393 net163
*394 net164
*395 net165
*396 net166
*397 net167
*398 net168
*399 net169
*400 net17
*401 net170
*402 net171
*403 net172
*404 net173
*405 net174
*406 net175
*407 net176
*408 net177
*409 net178
*410 net179
*411 net18
*412 net180
*413 net181
*414 net182
*415 net183
*416 net184
*417 net185
*418 net186
*419 net187
*420 net188
*421 net189
*422 net19
*423 net190
*424 net191
*425 net192
*426 net193
*427 net194
*428 net195
*429 net196
*430 net197
*431 net198
*432 net199
*433 net2
*434 net20
*435 net200
*436 net201
*437 net202
*438 net203
*439 net204
*440 net205
*441 net206
*442 net207
*443 net208
*444 net209
*445 net21
*446 net210
*447 net211
*448 net212
*449 net213
*450 net214
*451 net215
*452 net216
*453 net217
*454 net218
*455 net219
*456 net22
*457 net220
*458 net221
*459 net222
*460 net223
*461 net224
*462 net225
*463 net226
*464 net227
*465 net228
*466 net229
*467 net23
*468 net230
*469 net231
*470 net232
*471 net233
*472 net234
*473 net235
*474 net236
*475 net237
*476 net238
*477 net239
*478 net24
*479 net240
*480 net241
*481 net242
*482 net243
*483 net244
*484 net245
*485 net246
*486 net247
*487 net248
*488 net249
*489 net25
*490 net250
*491 net251
*492 net252
*493 net253
*494 net254
*495 net255
*496 net256
*497 net257
*498 net258
*499 net259
*500 net26
*501 net260
*502 net261
*503 net262
*504 net263
*505 net264
*506 net265
*507 net266
*508 net267
*509 net268
*510 net269
*511 net27
*512 net270
*513 net271
*514 net272
*515 net273
*516 net274
*517 net275
*518 net276
*519 net277
*520 net278
*521 net279
*522 net28
*523 net280
*524 net281
*525 net282
*526 net283
*527 net284
*528 net285
*529 net286
*530 net287
*531 net288
*532 net289
*533 net29
*534 net290
*535 net291
*536 net292
*537 net293
*538 net294
*539 net295
*540 net296
*541 net297
*542 net298
*543 net299
*544 net3
*545 net30
*546 net300
*547 net301
*548 net302
*549 net303
*550 net304
*551 net305
*552 net306
*553 net307
*554 net308
*555 net309
*556 net31
*557 net310
*558 net311
*559 net312
*560 net313
*561 net314
*562 net315
*563 net316
*564 net317
*565 net318
*566 net319
*567 net32
*568 net320
*569 net321
*570 net322
*571 net323
*572 net324
*573 net325
*574 net326
*575 net327
*576 net328
*577 net329
*578 net33
*579 net330
*580 net331
*581 net332
*582 net333
*583 net334
*584 net335
*585 net336
*586 net337
*587 net338
*588 net339
*589 net34
*590 net340
*591 net341
*592 net342
*593 net343
*594 net344
*595 net345
*596 net346
*597 net347
*598 net348
*599 net349
*600 net35
*601 net350
*602 net351
*603 net352
*604 net353
*605 net354
*606 net355
*607 net356
*608 net357
*609 net358
*610 net359
*611 net36
*612 net360
*613 net361
*614 net362
*615 net363
*616 net364
*617 net365
*618 net366
*619 net367
*620 net368
*621 net369
*622 net37
*623 net370
*624 net371
*625 net372
*626 net373
*627 net374
*628 net375
*629 net376
*630 net377
*631 net378
*632 net379
*633 net38
*634 net380
*635 net381
*636 net382
*637 net383
*638 net384
*639 net385
*640 net386
*641 net387
*642 net388
*643 net389
*644 net39
*645 net390
*646 net391
*647 net392
*648 net393
*649 net394
*650 net395
*651 net396
*652 net397
*653 net398
*654 net399
*655 net4
*656 net40
*657 net400
*658 net401
*659 net402
*660 net403
*661 net404
*662 net405
*663 net406
*664 net407
*665 net408
*666 net409
*667 net41
*668 net410
*669 net411
*670 net412
*671 net413
*672 net414
*673 net415
*674 net416
*675 net417
*676 net418
*677 net419
*678 net42
*679 net420
*680 net421
*681 net422
*682 net423
*683 net424
*684 net425
*685 net426
*686 net427
*687 net428
*688 net429
*689 net43
*690 net430
*691 net431
*692 net432
*693 net433
*694 net434
*695 net435
*696 net436
*697 net437
*698 net438
*699 net439
*700 net44
*701 net440
*702 net441
*703 net442
*704 net443
*705 net444
*706 net445
*707 net446
*708 net447
*709 net448
*710 net449
*711 net45
*712 net450
*713 net451
*714 net452
*715 net453
*716 net454
*717 net455
*718 net456
*719 net457
*720 net458
*721 net459
*722 net46
*723 net460
*724 net461
*725 net462
*726 net463
*727 net464
*728 net465
*729 net466
*730 net467
*731 net468
*732 net469
*733 net47
*734 net470
*735 net471
*736 net472
*737 net473
*738 net474
*739 net475
*740 net476
*741 net477
*742 net478
*743 net479
*744 net48
*745 net480
*746 net481
*747 net482
*748 net483
*749 net484
*750 net485
*751 net486
*752 net487
*753 net488
*754 net489
*755 net49
*756 net490
*757 net491
*758 net492
*759 net493
*760 net494
*761 net495
*762 net496
*763 net497
*764 net498
*765 net499
*766 net5
*767 net50
*768 net500
*769 net501
*770 net502
*771 net503
*772 net504
*773 net505
*774 net506
*775 net507
*776 net508
*777 net509
*778 net51
*779 net510
*780 net511
*781 net512
*782 net513
*783 net514
*784 net515
*785 net516
*786 net517
*787 net518
*788 net519
*789 net52
*790 net520
*791 net521
*792 net522
*793 net523
*794 net524
*795 net525
*796 net526
*797 net527
*798 net528
*799 net529
*800 net53
*801 net530
*802 net531
*803 net532
*804 net533
*805 net534
*806 net535
*807 net536
*808 net537
*809 net538
*810 net539
*811 net54
*812 net540
*813 net541
*814 net542
*815 net543
*816 net544
*817 net545
*818 net546
*819 net547
*820 net548
*821 net549
*822 net55
*823 net550
*824 net551
*825 net552
*826 net553
*827 net554
*828 net555
*829 net556
*830 net557
*831 net558
*832 net559
*833 net56
*834 net560
*835 net561
*836 net562
*837 net563
*838 net564
*839 net565
*840 net566
*841 net567
*842 net568
*843 net569
*844 net57
*845 net570
*846 net571
*847 net572
*848 net573
*849 net574
*850 net575
*851 net576
*852 net577
*853 net578
*854 net579
*855 net58
*856 net580
*857 net581
*858 net582
*859 net583
*860 net584
*861 net585
*862 net586
*863 net587
*864 net588
*865 net589
*866 net59
*867 net590
*868 net591
*869 net592
*870 net593
*871 net594
*872 net595
*873 net596
*874 net597
*875 net598
*876 net599
*877 net6
*878 net60
*879 net600
*880 net601
*881 net602
*882 net603
*883 net604
*884 net605
*885 net606
*886 net607
*887 net608
*888 net609
*889 net61
*890 net610
*891 net611
*892 net612
*893 net613
*894 net614
*895 net615
*896 net616
*897 net617
*898 net618
*899 net619
*900 net62
*901 net620
*902 net621
*903 net622
*904 net623
*905 net624
*906 net625
*907 net626
*908 net627
*909 net628
*910 net629
*911 net63
*912 net630
*913 net631
*914 net632
*915 net633
*916 net634
*917 net635
*918 net636
*919 net637
*920 net638
*921 net639
*922 net64
*923 net640
*924 net641
*925 net642
*926 net643
*927 net644
*928 net645
*929 net646
*930 net647
*931 net648
*932 net649
*933 net65
*934 net650
*935 net651
*936 net652
*937 net653
*938 net654
*939 net655
*940 net656
*941 net657
*942 net658
*943 net659
*944 net66
*945 net660
*946 net661
*947 net662
*948 net663
*949 net664
*950 net665
*951 net666
*952 net667
*953 net668
*954 net669
*955 net67
*956 net670
*957 net671
*958 net672
*959 net673
*960 net674
*961 net675
*962 net676
*963 net677
*964 net678
*965 net679
*966 net68
*967 net680
*968 net681
*969 net682
*970 net683
*971 net684
*972 net685
*973 net686
*974 net687
*975 net688
*976 net689
*977 net69
*978 net690
*979 net691
*980 net692
*981 net693
*982 net694
*983 net695
*984 net696
*985 net697
*986 net698
*987 net699
*988 net7
*989 net70
*990 net700
*991 net701
*992 net702
*993 net703
*994 net704
*995 net705
*996 net706
*997 net707
*998 net708
*999 net709
*1000 net71
*1001 net710
*1002 net711
*1003 net712
*1004 net713
*1005 net714
*1006 net715
*1007 net716
*1008 net717
*1009 net718
*1010 net719
*1011 net72
*1012 net720
*1013 net721
*1014 net722
*1015 net723
*1016 net724
*1017 net725
*1018 net726
*1019 net727
*1020 net728
*1021 net729
*1022 net73
*1023 net730
*1024 net731
*1025 net732
*1026 net733
*1027 net734
*1028 net735
*1029 net736
*1030 net737
*1031 net738
*1032 net739
*1033 net74
*1034 net740
*1035 net741
*1036 net742
*1037 net743
*1038 net744
*1039 net745
*1040 net746
*1041 net747
*1042 net748
*1043 net749
*1044 net75
*1045 net750
*1046 net751
*1047 net752
*1048 net753
*1049 net754
*1050 net755
*1051 net756
*1052 net757
*1053 net758
*1054 net759
*1055 net76
*1056 net760
*1057 net761
*1058 net762
*1059 net763
*1060 net764
*1061 net765
*1062 net766
*1063 net767
*1064 net768
*1065 net769
*1066 net77
*1067 net770
*1068 net771
*1069 net772
*1070 net773
*1071 net774
*1072 net775
*1073 net776
*1074 net777
*1075 net778
*1076 net779
*1077 net78
*1078 net780
*1079 net781
*1080 net782
*1081 net783
*1082 net784
*1083 net785
*1084 net786
*1085 net787
*1086 net788
*1087 net789
*1088 net79
*1089 net790
*1090 net791
*1091 net792
*1092 net793
*1093 net794
*1094 net795
*1095 net796
*1096 net797
*1097 net798
*1098 net799
*1099 net8
*1100 net80
*1101 net800
*1102 net801
*1103 net802
*1104 net803
*1105 net804
*1106 net805
*1107 net806
*1108 net807
*1109 net808
*1110 net809
*1111 net81
*1112 net810
*1113 net811
*1114 net812
*1115 net813
*1116 net814
*1117 net815
*1118 net816
*1119 net817
*1120 net818
*1121 net819
*1122 net82
*1123 net820
*1124 net821
*1125 net822
*1126 net823
*1127 net824
*1128 net825
*1129 net826
*1130 net827
*1131 net828
*1132 net829
*1133 net83
*1134 net830
*1135 net831
*1136 net832
*1137 net833
*1138 net834
*1139 net835
*1140 net836
*1141 net837
*1142 net838
*1143 net839
*1144 net84
*1145 net840
*1146 net841
*1147 net842
*1148 net843
*1149 net844
*1150 net845
*1151 net846
*1152 net847
*1153 net848
*1154 net849
*1155 net85
*1156 net850
*1157 net851
*1158 net852
*1159 net853
*1160 net854
*1161 net855
*1162 net856
*1163 net857
*1164 net858
*1165 net859
*1166 net86
*1167 net860
*1168 net861
*1169 net862
*1170 net863
*1171 net864
*1172 net865
*1173 net866
*1174 net867
*1175 net868
*1176 net869
*1177 net87
*1178 net870
*1179 net871
*1180 net872
*1181 net873
*1182 net874
*1183 net875
*1184 net876
*1185 net877
*1186 net878
*1187 net879
*1188 net88
*1189 net880
*1190 net881
*1191 net882
*1192 net883
*1193 net884
*1194 net885
*1195 net886
*1196 net887
*1197 net888
*1198 net889
*1199 net89
*1200 net890
*1201 net891
*1202 net892
*1203 net893
*1204 net894
*1205 net895
*1206 net896
*1207 net897
*1208 net898
*1209 net899
*1210 net9
*1211 net90
*1212 net900
*1213 net901
*1214 net902
*1215 net903
*1216 net904
*1217 net905
*1218 net906
*1219 net907
*1220 net908
*1221 net909
*1222 net91
*1223 net910
*1224 net911
*1225 net912
*1226 net913
*1227 net914
*1228 net915
*1229 net916
*1230 net917
*1231 net918
*1232 net919
*1233 net92
*1234 net920
*1235 net921
*1236 net922
*1237 net923
*1238 net924
*1239 net925
*1240 net926
*1241 net927
*1242 net928
*1243 net929
*1244 net93
*1245 net930
*1246 net931
*1247 net932
*1248 net933
*1249 net934
*1250 net935
*1251 net936
*1252 net937
*1253 net938
*1254 net939
*1255 net94
*1256 net940
*1257 net941
*1258 net942
*1259 net943
*1260 net944
*1261 net945
*1262 net946
*1263 net947
*1264 net948
*1265 net949
*1266 net95
*1267 net950
*1268 net951
*1269 net952
*1270 net953
*1271 net954
*1272 net955
*1273 net956
*1274 net957
*1275 net958
*1276 net959
*1277 net96
*1278 net960
*1279 net961
*1280 net962
*1281 net963
*1282 net964
*1283 net965
*1284 net966
*1285 net967
*1286 net968
*1287 net969
*1288 net97
*1289 net970
*1290 net971
*1291 net972
*1292 net973
*1293 net974
*1294 net975
*1295 net976
*1296 net977
*1297 net978
*1298 net979
*1299 net98
*1300 net980
*1301 net981
*1302 net982
*1303 net983
*1304 net984
*1305 net985
*1306 net986
*1307 net987
*1308 net988
*1309 net989
*1310 net99
*1311 net990
*1312 net991
*1313 net992
*1314 net993
*1315 net994
*1316 net995
*1317 net996
*1318 net997
*1319 net998
*1320 net999
*1321 ANTENNA_c100_X
*1322 ANTENNA_c101_B
*1323 ANTENNA_c101_C
*1324 ANTENNA_c102_A1
*1325 ANTENNA_c103_S1
*1326 ANTENNA_c104_C1
*1327 ANTENNA_c104_D1
*1328 ANTENNA_c104_X
*1329 ANTENNA_c105_B
*1330 ANTENNA_c105_C_N
*1331 ANTENNA_c106_S0
*1332 ANTENNA_c107_A
*1333 ANTENNA_c107_C_N
*1334 ANTENNA_c108_B1
*1335 ANTENNA_c109_A0
*1336 ANTENNA_c109_A3
*1337 ANTENNA_c109_S0
*1338 ANTENNA_c110_A
*1339 ANTENNA_c114_A1
*1340 ANTENNA_c117_A
*1341 ANTENNA_c118_B
*1342 ANTENNA_c119_CLK
*1343 ANTENNA_c119_SCE
*1344 ANTENNA_c120_A0
*1345 ANTENNA_c120_S1
*1346 ANTENNA_c121_A
*1347 ANTENNA_c122_C
*1348 ANTENNA_c124_A3
*1349 ANTENNA_c131_A3
*1350 ANTENNA_c132_B
*1351 ANTENNA_c132_C
*1352 ANTENNA_c133_A
*1353 ANTENNA_c133_B
*1354 ANTENNA_c133_C
*1355 ANTENNA_c134_X
*1356 ANTENNA_c135_X
*1357 ANTENNA_c136_A
*1358 ANTENNA_c136_C
*1359 ANTENNA_c136_X
*1360 ANTENNA_c138_A
*1361 ANTENNA_c138_X
*1362 ANTENNA_c140_C1
*1363 ANTENNA_c140_D1
*1364 ANTENNA_c140_X
*1365 ANTENNA_c141_B
*1366 ANTENNA_c141_X
*1367 ANTENNA_c142_B
*1368 ANTENNA_c142_C
*1369 ANTENNA_c143_A3
*1370 ANTENNA_c143_S1
*1371 ANTENNA_c143_X
*1372 ANTENNA_c144_A
*1373 ANTENNA_c144_B
*1374 ANTENNA_c144_C
*1375 ANTENNA_c144_X
*1376 ANTENNA_c145_A1
*1377 ANTENNA_c145_S0
*1378 ANTENNA_c145_S1
*1379 ANTENNA_c145_X
*1380 ANTENNA_c146_C
*1381 ANTENNA_c146_X
*1382 ANTENNA_c148_B
*1383 ANTENNA_c149_A3
*1384 ANTENNA_c149_S0
*1385 ANTENNA_c149_S1
*1386 ANTENNA_c150_A0
*1387 ANTENNA_c150_A3
*1388 ANTENNA_c150_S1
*1389 ANTENNA_c151_A1
*1390 ANTENNA_c151_S1
*1391 ANTENNA_c152_A
*1392 ANTENNA_c152_X
*1393 ANTENNA_c153_A0
*1394 ANTENNA_c153_A3
*1395 ANTENNA_c153_X
*1396 ANTENNA_c154_B
*1397 ANTENNA_c154_X
*1398 ANTENNA_c155_A
*1399 ANTENNA_c155_X
*1400 ANTENNA_c156_B
*1401 ANTENNA_c156_C
*1402 ANTENNA_c157_A
*1403 ANTENNA_c157_B
*1404 ANTENNA_c158_X
*1405 ANTENNA_c159_B
*1406 ANTENNA_c160_B
*1407 ANTENNA_c161_X
*1408 ANTENNA_c163_A
*1409 ANTENNA_c163_B
*1410 ANTENNA_c164_A2
*1411 ANTENNA_c164_D1
*1412 ANTENNA_c165_X
*1413 ANTENNA_c166_D_N
*1414 ANTENNA_c166_X
*1415 ANTENNA_c169_A3
*1416 ANTENNA_c169_S0
*1417 ANTENNA_c170_A
*1418 ANTENNA_c170_X
*1419 ANTENNA_c171_B
*1420 ANTENNA_c173_A0
*1421 ANTENNA_c173_A3
*1422 ANTENNA_c174_A2
*1423 ANTENNA_c174_S0
*1424 ANTENNA_c176_A
*1425 ANTENNA_c177_C
*1426 ANTENNA_c179_A
*1427 ANTENNA_c180_B
*1428 ANTENNA_c180_C
*1429 ANTENNA_c181_C
*1430 ANTENNA_c182_X
*1431 ANTENNA_c183_C
*1432 ANTENNA_c185_B
*1433 ANTENNA_c185_C
*1434 ANTENNA_c186_B
*1435 ANTENNA_c187_A2
*1436 ANTENNA_c187_B1
*1437 ANTENNA_c187_C1
*1438 ANTENNA_c189_B
*1439 ANTENNA_c189_X
*1440 ANTENNA_c190_B
*1441 ANTENNA_c192_B
*1442 ANTENNA_c192_D_N
*1443 ANTENNA_c192_X
*1444 ANTENNA_c193_C
*1445 ANTENNA_c194_X
*1446 ANTENNA_c195_A2
*1447 ANTENNA_c195_C1
*1448 ANTENNA_c196_A2
*1449 ANTENNA_c196_B1
*1450 ANTENNA_c197_CLK_N
*1451 ANTENNA_c197_Q
*1452 ANTENNA_c198_B
*1453 ANTENNA_c198_C
*1454 ANTENNA_c200_A2
*1455 ANTENNA_c200_B1
*1456 ANTENNA_c200_D1
*1457 ANTENNA_c201_CLK_N
*1458 ANTENNA_c202_A2
*1459 ANTENNA_c202_C1
*1460 ANTENNA_c202_D1
*1461 ANTENNA_c202_X
*1462 ANTENNA_c205_B
*1463 ANTENNA_c206_B1
*1464 ANTENNA_c208_D1
*1465 ANTENNA_c208_X
*1466 ANTENNA_c210_A1
*1467 ANTENNA_c211_X
*1468 ANTENNA_c212_C
*1469 ANTENNA_c212_X
*1470 ANTENNA_c213_X
*1471 ANTENNA_c214_A1
*1472 ANTENNA_c215_A1
*1473 ANTENNA_c215_A2
*1474 ANTENNA_c215_A3
*1475 ANTENNA_c215_S1
*1476 ANTENNA_c216_A2
*1477 ANTENNA_c216_B1
*1478 ANTENNA_c217_A2
*1479 ANTENNA_c217_A3
*1480 ANTENNA_c217_S1
*1481 ANTENNA_c217_X
*1482 ANTENNA_c218_A3
*1483 ANTENNA_c218_S0
*1484 ANTENNA_c218_S1
*1485 ANTENNA_c219_A2
*1486 ANTENNA_c219_S1
*1487 ANTENNA_c220_X
*1488 ANTENNA_c221_A
*1489 ANTENNA_c222_A1
*1490 ANTENNA_c222_A2
*1491 ANTENNA_c222_A3
*1492 ANTENNA_c222_S0
*1493 ANTENNA_c223_A
*1494 ANTENNA_c223_C_N
*1495 ANTENNA_c223_X
*1496 ANTENNA_c224_C1
*1497 ANTENNA_c226_A2
*1498 ANTENNA_c226_B1
*1499 ANTENNA_c226_C1
*1500 ANTENNA_c227_A1
*1501 ANTENNA_c227_A3
*1502 ANTENNA_c227_S0
*1503 ANTENNA_c229_A2
*1504 ANTENNA_c229_B1
*1505 ANTENNA_c229_C1
*1506 ANTENNA_c230_A
*1507 ANTENNA_c230_B
*1508 ANTENNA_c231_A0
*1509 ANTENNA_c231_S0
*1510 ANTENNA_c233_CLK
*1511 ANTENNA_c233_D
*1512 ANTENNA_c233_SCE
*1513 ANTENNA_c233_SET_B
*1514 ANTENNA_c234_S0
*1515 ANTENNA_c235_X
*1516 ANTENNA_c236_A
*1517 ANTENNA_c238_A1
*1518 ANTENNA_c239_A1
*1519 ANTENNA_c239_A2
*1520 ANTENNA_c240_A2
*1521 ANTENNA_c240_A3
*1522 ANTENNA_c241_X
*1523 ANTENNA_c242_A
*1524 ANTENNA_c242_C
*1525 ANTENNA_c245_A
*1526 ANTENNA_c247_B
*1527 ANTENNA_c250_A
*1528 ANTENNA_c252_B
*1529 ANTENNA_c253_A1
*1530 ANTENNA_c253_A3
*1531 ANTENNA_c253_S0
*1532 ANTENNA_c255_B
*1533 ANTENNA_c255_X
*1534 ANTENNA_c256_A1
*1535 ANTENNA_c256_A2
*1536 ANTENNA_c256_A3
*1537 ANTENNA_c259_A2
*1538 ANTENNA_c259_C1
*1539 ANTENNA_c261_C1
*1540 ANTENNA_c262_A2
*1541 ANTENNA_c263_C1
*1542 ANTENNA_c263_D1
*1543 ANTENNA_c264_C
*1544 ANTENNA_c265_A
*1545 ANTENNA_c266_A
*1546 ANTENNA_c266_B
*1547 ANTENNA_c267_B
*1548 ANTENNA_c268_A
*1549 ANTENNA_c269_A
*1550 ANTENNA_c269_B
*1551 ANTENNA_c270_B
*1552 ANTENNA_c271_C
*1553 ANTENNA_c272_C
*1554 ANTENNA_c272_X
*1555 ANTENNA_c274_B
*1556 ANTENNA_c275_A
*1557 ANTENNA_c275_C
*1558 ANTENNA_c276_B
*1559 ANTENNA_c277_B
*1560 ANTENNA_c277_X
*1561 ANTENNA_c278_B
*1562 ANTENNA_c278_C
*1563 ANTENNA_c278_X
*1564 ANTENNA_c279_B
*1565 ANTENNA_c280_C
*1566 ANTENNA_c280_X
*1567 ANTENNA_c281_A
*1568 ANTENNA_c281_B
*1569 ANTENNA_c281_C_N
*1570 ANTENNA_c281_D_N
*1571 ANTENNA_c281_X
*1572 ANTENNA_c283_A1
*1573 ANTENNA_c283_S0
*1574 ANTENNA_c284_A1
*1575 ANTENNA_c284_A3
*1576 ANTENNA_c284_S0
*1577 ANTENNA_c284_S1
*1578 ANTENNA_c285_A1
*1579 ANTENNA_c285_B1
*1580 ANTENNA_c285_C1
*1581 ANTENNA_c285_X
*1582 ANTENNA_c286_B
*1583 ANTENNA_c286_C
*1584 ANTENNA_c287_B
*1585 ANTENNA_c288_X
*1586 ANTENNA_c289_A
*1587 ANTENNA_c289_B
*1588 ANTENNA_c291_X
*1589 ANTENNA_c293_C
*1590 ANTENNA_c295_B
*1591 ANTENNA_c296_D_N
*1592 ANTENNA_c298_A
*1593 ANTENNA_c299_A
*1594 ANTENNA_c300_A
*1595 ANTENNA_c301_X
*1596 ANTENNA_c302_C
*1597 ANTENNA_c304_X
*1598 ANTENNA_c305_X
*1599 ANTENNA_c306_B
*1600 ANTENNA_c306_C
*1601 ANTENNA_c306_X
*1602 ANTENNA_c307_A2
*1603 ANTENNA_c307_A3
*1604 ANTENNA_c307_S1
*1605 ANTENNA_c307_X
*1606 ANTENNA_c309_B
*1607 ANTENNA_c309_X
*1608 ANTENNA_c311_B
*1609 ANTENNA_c311_X
*1610 ANTENNA_c312_A0
*1611 ANTENNA_c312_A2
*1612 ANTENNA_c312_S0
*1613 ANTENNA_c312_S1
*1614 ANTENNA_c313_B
*1615 ANTENNA_c313_C
*1616 ANTENNA_c313_X
*1617 ANTENNA_c315_A
*1618 ANTENNA_c315_B
*1619 ANTENNA_c316_A
*1620 ANTENNA_c316_B
*1621 ANTENNA_c317_C
*1622 ANTENNA_c317_X
*1623 ANTENNA_c318_A
*1624 ANTENNA_c318_B
*1625 ANTENNA_c318_X
*1626 ANTENNA_c319_B
*1627 ANTENNA_c319_C
*1628 ANTENNA_c320_C
*1629 ANTENNA_c321_X
*1630 ANTENNA_c323_A2
*1631 ANTENNA_c323_A3
*1632 ANTENNA_c323_S0
*1633 ANTENNA_c323_S1
*1634 ANTENNA_c324_X
*1635 ANTENNA_c326_C1
*1636 ANTENNA_c328_A1
*1637 ANTENNA_c328_A3
*1638 ANTENNA_c330_B
*1639 ANTENNA_c331_B
*1640 ANTENNA_c331_D_N
*1641 ANTENNA_c332_A
*1642 ANTENNA_c332_B
*1643 ANTENNA_c332_C
*1644 ANTENNA_c333_A
*1645 ANTENNA_c333_X
*1646 ANTENNA_c334_D_N
*1647 ANTENNA_c335_CLK
*1648 ANTENNA_c335_D
*1649 ANTENNA_c335_RESET_B
*1650 ANTENNA_c335_SCD
*1651 ANTENNA_c335_SCE
*1652 ANTENNA_c336_CLK_N
*1653 ANTENNA_c336_RESET_B
*1654 ANTENNA_c336_SCD
*1655 ANTENNA_c336_SCE
*1656 ANTENNA_c337_A2
*1657 ANTENNA_c337_A3
*1658 ANTENNA_c337_S1
*1659 ANTENNA_c337_X
*1660 ANTENNA_c338_A0
*1661 ANTENNA_c338_A1
*1662 ANTENNA_c338_A3
*1663 ANTENNA_c338_S0
*1664 ANTENNA_c338_S1
*1665 ANTENNA_c339_B
*1666 ANTENNA_c339_X
*1667 ANTENNA_c341_B
*1668 ANTENNA_c341_D_N
*1669 ANTENNA_c342_CLK
*1670 ANTENNA_c342_RESET_B
*1671 ANTENNA_c343_CLK_N
*1672 ANTENNA_c343_D
*1673 ANTENNA_c343_Q
*1674 ANTENNA_c343_Q_N
*1675 ANTENNA_c343_RESET_B
*1676 ANTENNA_c343_SCE
*1677 ANTENNA_c344_A2
*1678 ANTENNA_c344_B1
*1679 ANTENNA_c345_A3
*1680 ANTENNA_c345_S1
*1681 ANTENNA_c346_B1
*1682 ANTENNA_c346_D1
*1683 ANTENNA_c346_X
*1684 ANTENNA_c347_CLK_N
*1685 ANTENNA_c347_RESET_B
*1686 ANTENNA_c347_SCD
*1687 ANTENNA_c347_SET_B
*1688 ANTENNA_c348_A2
*1689 ANTENNA_c348_B1
*1690 ANTENNA_c348_C1
*1691 ANTENNA_c348_D1
*1692 ANTENNA_c348_X
*1693 ANTENNA_c349_A1
*1694 ANTENNA_c349_A2
*1695 ANTENNA_c349_A3
*1696 ANTENNA_c349_S0
*1697 ANTENNA_c350_A2
*1698 ANTENNA_c350_S1
*1699 ANTENNA_c351_CLK
*1700 ANTENNA_c351_RESET_B
*1701 ANTENNA_c351_SET_B
*1702 ANTENNA_c352_B
*1703 ANTENNA_c352_C
*1704 ANTENNA_c354_B
*1705 ANTENNA_c354_C
*1706 ANTENNA_c354_X
*1707 ANTENNA_c357_A0
*1708 ANTENNA_c357_A2
*1709 ANTENNA_c357_A3
*1710 ANTENNA_c357_S1
*1711 ANTENNA_c358_B
*1712 ANTENNA_c358_C_N
*1713 ANTENNA_c358_D_N
*1714 ANTENNA_c360_A1
*1715 ANTENNA_c360_A3
*1716 ANTENNA_c360_S0
*1717 ANTENNA_c360_S1
*1718 ANTENNA_c361_A
*1719 ANTENNA_c361_C
*1720 ANTENNA_c362_B
*1721 ANTENNA_c362_D_N
*1722 ANTENNA_c362_X
*1723 ANTENNA_c364_A
*1724 ANTENNA_c364_B
*1725 ANTENNA_c365_A0
*1726 ANTENNA_c365_A1
*1727 ANTENNA_c365_A2
*1728 ANTENNA_c365_A3
*1729 ANTENNA_c366_B
*1730 ANTENNA_c367_A1
*1731 ANTENNA_c367_S0
*1732 ANTENNA_c368_CLK_N
*1733 ANTENNA_c368_RESET_B
*1734 ANTENNA_c368_SET_B
*1735 ANTENNA_c369_B
*1736 ANTENNA_c369_C
*1737 ANTENNA_c370_A0
*1738 ANTENNA_c370_A1
*1739 ANTENNA_c370_A2
*1740 ANTENNA_c370_A3
*1741 ANTENNA_c370_S1
*1742 ANTENNA_c371_A2
*1743 ANTENNA_c371_A3
*1744 ANTENNA_c371_S0
*1745 ANTENNA_c372_A0
*1746 ANTENNA_c372_S0
*1747 ANTENNA_c392_A2
*1748 ANTENNA_c392_A3
*1749 ANTENNA_c393_A1
*1750 ANTENNA_c393_A2
*1751 ANTENNA_c393_A3
*1752 ANTENNA_c394_A0
*1753 ANTENNA_c394_S0
*1754 ANTENNA_c395_A0
*1755 ANTENNA_c395_A2
*1756 ANTENNA_c395_S0
*1757 ANTENNA_c396_A
*1758 ANTENNA_c396_B
*1759 ANTENNA_c398_X
*1760 ANTENNA_c399_A
*1761 ANTENNA_c400_B
*1762 ANTENNA_c400_C
*1763 ANTENNA_c401_X
*1764 ANTENNA_c405_X
*1765 ANTENNA_c406_B
*1766 ANTENNA_c407_X
*1767 ANTENNA_c408_X
*1768 ANTENNA_c412_A1
*1769 ANTENNA_c412_S0
*1770 ANTENNA_c413_C1
*1771 ANTENNA_c415_B1
*1772 ANTENNA_c415_X
*1773 ANTENNA_c416_A3
*1774 ANTENNA_c416_S1
*1775 ANTENNA_c417_A1
*1776 ANTENNA_c417_A3
*1777 ANTENNA_c417_S0
*1778 ANTENNA_c417_S1
*1779 ANTENNA_c417_X
*1780 ANTENNA_c420_B
*1781 ANTENNA_c421_CLK_N
*1782 ANTENNA_c421_D
*1783 ANTENNA_c421_Q
*1784 ANTENNA_c421_RESET_B
*1785 ANTENNA_c421_SCD
*1786 ANTENNA_c421_SCE
*1787 ANTENNA_c421_SET_B
*1788 ANTENNA_c422_A1
*1789 ANTENNA_c422_B1
*1790 ANTENNA_c422_C1
*1791 ANTENNA_c422_D1
*1792 ANTENNA_c423_A0
*1793 ANTENNA_c423_A1
*1794 ANTENNA_c423_A3
*1795 ANTENNA_c423_S0
*1796 ANTENNA_c423_S1
*1797 ANTENNA_c424_A2
*1798 ANTENNA_c424_B1
*1799 ANTENNA_c424_C1
*1800 ANTENNA_c424_D1
*1801 ANTENNA_c425_B
*1802 ANTENNA_c425_D_N
*1803 ANTENNA_c426_CLK
*1804 ANTENNA_c426_RESET_B
*1805 ANTENNA_c426_SCD
*1806 ANTENNA_c428_CLK_N
*1807 ANTENNA_c428_D
*1808 ANTENNA_c428_RESET_B
*1809 ANTENNA_c429_C_N
*1810 ANTENNA_c430_X
*1811 ANTENNA_c431_CLK
*1812 ANTENNA_c431_D
*1813 ANTENNA_c431_SCD
*1814 ANTENNA_c431_SCE
*1815 ANTENNA_c432_A1
*1816 ANTENNA_c432_A3
*1817 ANTENNA_c432_S0
*1818 ANTENNA_c432_S1
*1819 ANTENNA_c433_A1
*1820 ANTENNA_c433_A2
*1821 ANTENNA_c433_A3
*1822 ANTENNA_c433_S1
*1823 ANTENNA_c434_A1
*1824 ANTENNA_c434_S1
*1825 ANTENNA_c435_CLK
*1826 ANTENNA_c435_RESET_B
*1827 ANTENNA_c435_SCE
*1828 ANTENNA_c436_A1
*1829 ANTENNA_c436_A2
*1830 ANTENNA_c436_A3
*1831 ANTENNA_c437_A1
*1832 ANTENNA_c437_A3
*1833 ANTENNA_c437_S0
*1834 ANTENNA_c438_A
*1835 ANTENNA_c438_X
*1836 ANTENNA_c439_A1
*1837 ANTENNA_c439_X
*1838 ANTENNA_c441_B
*1839 ANTENNA_c442_X
*1840 ANTENNA_c443_A
*1841 ANTENNA_c443_B
*1842 ANTENNA_c443_C_N
*1843 ANTENNA_c443_D_N
*1844 ANTENNA_c444_A
*1845 ANTENNA_c444_B
*1846 ANTENNA_c445_A
*1847 ANTENNA_c445_B
*1848 ANTENNA_c447_A
*1849 ANTENNA_c447_B
*1850 ANTENNA_c447_C_N
*1851 ANTENNA_c447_D_N
*1852 ANTENNA_c449_CLK_N
*1853 ANTENNA_c449_SCE
*1854 ANTENNA_c449_SET_B
*1855 ANTENNA_c450_A2
*1856 ANTENNA_c450_C1
*1857 ANTENNA_c450_D1
*1858 ANTENNA_c451_A1
*1859 ANTENNA_c451_A2
*1860 ANTENNA_c451_B1
*1861 ANTENNA_c451_D1
*1862 ANTENNA_c451_X
*1863 ANTENNA_c452_B
*1864 ANTENNA_c453_CLK
*1865 ANTENNA_c453_Q
*1866 ANTENNA_c453_SCD
*1867 ANTENNA_c453_SCE
*1868 ANTENNA_c453_SET_B
*1869 ANTENNA_c454_A1
*1870 ANTENNA_c454_A2
*1871 ANTENNA_c454_D1
*1872 ANTENNA_c455_A1
*1873 ANTENNA_c455_A3