*SPEF "ieee 1481-1999"
*DESIGN "netlist_1"
*DATE "22:52:29 Saturday August 17, 2024"
*VENDOR "The OpenROAD Project"
*PROGRAM "OpenROAD"
*VERSION "d423155d69de7f683a23f6916ead418a615ad4ad"
*DESIGN_FLOW "NAME_SCOPE LOCAL" "PIN_CAP NONE"
*DIVIDER /
*DELIMITER :
*BUS_DELIMITER []
*T_UNIT 1 NS
*C_UNIT 1 PF
*R_UNIT 1 OHM
*L_UNIT 1 HENRY

*NAME_MAP
*3 clk
*4 in0
*5 in1
*6 in10
*7 in11
*8 in12
*9 in13
*10 in14
*11 in15
*12 in16
*13 in17
*14 in18
*15 in19
*16 in2
*17 in20
*18 in21
*19 in22
*20 in23
*21 in24
*22 in3
*23 in4
*24 in5
*25 in6
*26 in7
*27 in8
*28 in9
*29 out0
*30 out1
*31 out10
*32 out11
*33 out12
*34 out13
*35 out14
*36 out15
*37 out16
*38 out17
*39 out18
*40 out19
*41 out2
*42 out20
*43 out21
*44 out22
*45 out23
*46 out24
*47 out3
*48 out4
*49 out5
*50 out6
*51 out7
*52 out8
*53 out9
*54 rst
*55 clknet_0_clk
*56 clknet_0_net1020
*57 clknet_0_net126
*58 clknet_0_net127
*59 clknet_0_net129
*60 clknet_0_net144
*61 clknet_0_net145
*62 clknet_0_net147
*63 clknet_0_net160
*64 clknet_0_net161
*65 clknet_0_net162
*66 clknet_0_net163
*67 clknet_0_net168
*68 clknet_0_net197
*69 clknet_0_net20
*70 clknet_0_net201
*71 clknet_0_net205
*72 clknet_0_net207
*73 clknet_0_net208
*74 clknet_0_net21
*75 clknet_0_net210
*76 clknet_0_net213
*77 clknet_0_net22
*78 clknet_0_net226
*79 clknet_0_net23
*80 clknet_0_net24
*81 clknet_0_net25
*82 clknet_0_net26
*83 clknet_0_net27
*84 clknet_0_net272
*85 clknet_0_net29
*86 clknet_0_net317
*87 clknet_0_net318
*88 clknet_0_net320
*89 clknet_0_net321
*90 clknet_0_net324
*91 clknet_0_net325
*92 clknet_0_net326
*93 clknet_0_net328
*94 clknet_0_net329
*95 clknet_0_net330
*96 clknet_0_net34
*97 clknet_0_net352
*98 clknet_0_net353
*99 clknet_0_net357
*100 clknet_0_net42
*101 clknet_0_net442
*102 clknet_0_net447
*103 clknet_0_net479
*104 clknet_0_net482
*105 clknet_0_net491
*106 clknet_0_net493
*107 clknet_0_net496
*108 clknet_0_net498
*109 clknet_0_net558
*110 clknet_0_net563
*111 clknet_0_net694
*112 clknet_0_net710
*113 clknet_0_net712
*114 clknet_0_net717
*115 clknet_0_net719
*116 clknet_0_net747
*117 clknet_0_net764
*118 clknet_0_net79
*119 clknet_0_net81
*120 clknet_0_net85
*121 clknet_0_net87
*122 clknet_0_net88
*123 clknet_0_net89
*124 clknet_0_net91
*125 clknet_0_net912
*126 clknet_0_net914
*127 clknet_0_net915
*128 clknet_0_net949
*129 clknet_0_net95
*130 clknet_0_net950
*131 clknet_0_net951
*132 clknet_0_net984
*133 clknet_0_net985
*134 clknet_0_net993
*135 clknet_0_net994
*136 clknet_1_0__leaf_net1020
*137 clknet_1_0__leaf_net126
*138 clknet_1_0__leaf_net127
*139 clknet_1_0__leaf_net129
*140 clknet_1_0__leaf_net144
*141 clknet_1_0__leaf_net145
*142 clknet_1_0__leaf_net147
*143 clknet_1_0__leaf_net160
*144 clknet_1_0__leaf_net161
*145 clknet_1_0__leaf_net162
*146 clknet_1_0__leaf_net163
*147 clknet_1_0__leaf_net168
*148 clknet_1_0__leaf_net197
*149 clknet_1_0__leaf_net20
*150 clknet_1_0__leaf_net201
*151 clknet_1_0__leaf_net205
*152 clknet_1_0__leaf_net207
*153 clknet_1_0__leaf_net208
*154 clknet_1_0__leaf_net21
*155 clknet_1_0__leaf_net210
*156 clknet_1_0__leaf_net213
*157 clknet_1_0__leaf_net22
*158 clknet_1_0__leaf_net226
*159 clknet_1_0__leaf_net23
*160 clknet_1_0__leaf_net24
*161 clknet_1_0__leaf_net25
*162 clknet_1_0__leaf_net26
*163 clknet_1_0__leaf_net27
*164 clknet_1_0__leaf_net272
*165 clknet_1_0__leaf_net29
*166 clknet_1_0__leaf_net317
*167 clknet_1_0__leaf_net318
*168 clknet_1_0__leaf_net320
*169 clknet_1_0__leaf_net321
*170 clknet_1_0__leaf_net324
*171 clknet_1_0__leaf_net325
*172 clknet_1_0__leaf_net326
*173 clknet_1_0__leaf_net328
*174 clknet_1_0__leaf_net329
*175 clknet_1_0__leaf_net330
*176 clknet_1_0__leaf_net34
*177 clknet_1_0__leaf_net352
*178 clknet_1_0__leaf_net353
*179 clknet_1_0__leaf_net357
*180 clknet_1_0__leaf_net42
*181 clknet_1_0__leaf_net442
*182 clknet_1_0__leaf_net447
*183 clknet_1_0__leaf_net479
*184 clknet_1_0__leaf_net482
*185 clknet_1_0__leaf_net491
*186 clknet_1_0__leaf_net493
*187 clknet_1_0__leaf_net496
*188 clknet_1_0__leaf_net498
*189 clknet_1_0__leaf_net558
*190 clknet_1_0__leaf_net563
*191 clknet_1_0__leaf_net694
*192 clknet_1_0__leaf_net710
*193 clknet_1_0__leaf_net712
*194 clknet_1_0__leaf_net717
*195 clknet_1_0__leaf_net719
*196 clknet_1_0__leaf_net747
*197 clknet_1_0__leaf_net764
*198 clknet_1_0__leaf_net79
*199 clknet_1_0__leaf_net81
*200 clknet_1_0__leaf_net85
*201 clknet_1_0__leaf_net87
*202 clknet_1_0__leaf_net88
*203 clknet_1_0__leaf_net89
*204 clknet_1_0__leaf_net91
*205 clknet_1_0__leaf_net912
*206 clknet_1_0__leaf_net914
*207 clknet_1_0__leaf_net915
*208 clknet_1_0__leaf_net949
*209 clknet_1_0__leaf_net95
*210 clknet_1_0__leaf_net950
*211 clknet_1_0__leaf_net951
*212 clknet_1_0__leaf_net984
*213 clknet_1_0__leaf_net985
*214 clknet_1_0__leaf_net993
*215 clknet_1_0__leaf_net994
*216 clknet_1_1__leaf_net1020
*217 clknet_1_1__leaf_net126
*218 clknet_1_1__leaf_net127
*219 clknet_1_1__leaf_net129
*220 clknet_1_1__leaf_net144
*221 clknet_1_1__leaf_net145
*222 clknet_1_1__leaf_net147
*223 clknet_1_1__leaf_net160
*224 clknet_1_1__leaf_net161
*225 clknet_1_1__leaf_net162
*226 clknet_1_1__leaf_net163
*227 clknet_1_1__leaf_net168
*228 clknet_1_1__leaf_net197
*229 clknet_1_1__leaf_net20
*230 clknet_1_1__leaf_net201
*231 clknet_1_1__leaf_net205
*232 clknet_1_1__leaf_net207
*233 clknet_1_1__leaf_net208
*234 clknet_1_1__leaf_net21
*235 clknet_1_1__leaf_net210
*236 clknet_1_1__leaf_net213
*237 clknet_1_1__leaf_net22
*238 clknet_1_1__leaf_net226
*239 clknet_1_1__leaf_net23
*240 clknet_1_1__leaf_net24
*241 clknet_1_1__leaf_net25
*242 clknet_1_1__leaf_net26
*243 clknet_1_1__leaf_net27
*244 clknet_1_1__leaf_net272
*245 clknet_1_1__leaf_net29
*246 clknet_1_1__leaf_net317
*247 clknet_1_1__leaf_net318
*248 clknet_1_1__leaf_net320
*249 clknet_1_1__leaf_net321
*250 clknet_1_1__leaf_net324
*251 clknet_1_1__leaf_net325
*252 clknet_1_1__leaf_net326
*253 clknet_1_1__leaf_net328
*254 clknet_1_1__leaf_net329
*255 clknet_1_1__leaf_net330
*256 clknet_1_1__leaf_net34
*257 clknet_1_1__leaf_net352
*258 clknet_1_1__leaf_net353
*259 clknet_1_1__leaf_net357
*260 clknet_1_1__leaf_net42
*261 clknet_1_1__leaf_net442
*262 clknet_1_1__leaf_net447
*263 clknet_1_1__leaf_net479
*264 clknet_1_1__leaf_net482
*265 clknet_1_1__leaf_net491
*266 clknet_1_1__leaf_net493
*267 clknet_1_1__leaf_net496
*268 clknet_1_1__leaf_net498
*269 clknet_1_1__leaf_net558
*270 clknet_1_1__leaf_net563
*271 clknet_1_1__leaf_net694
*272 clknet_1_1__leaf_net710
*273 clknet_1_1__leaf_net712
*274 clknet_1_1__leaf_net717
*275 clknet_1_1__leaf_net719
*276 clknet_1_1__leaf_net747
*277 clknet_1_1__leaf_net764
*278 clknet_1_1__leaf_net79
*279 clknet_1_1__leaf_net81
*280 clknet_1_1__leaf_net85
*281 clknet_1_1__leaf_net87
*282 clknet_1_1__leaf_net88
*283 clknet_1_1__leaf_net89
*284 clknet_1_1__leaf_net91
*285 clknet_1_1__leaf_net912
*286 clknet_1_1__leaf_net914
*287 clknet_1_1__leaf_net915
*288 clknet_1_1__leaf_net949
*289 clknet_1_1__leaf_net95
*290 clknet_1_1__leaf_net950
*291 clknet_1_1__leaf_net951
*292 clknet_1_1__leaf_net984
*293 clknet_1_1__leaf_net985
*294 clknet_1_1__leaf_net993
*295 clknet_1_1__leaf_net994
*296 clknet_4_0_0_clk
*297 clknet_4_10_0_clk
*298 clknet_4_11_0_clk
*299 clknet_4_12_0_clk
*300 clknet_4_13_0_clk
*301 clknet_4_14_0_clk
*302 clknet_4_15_0_clk
*303 clknet_4_1_0_clk
*304 clknet_4_2_0_clk
*305 clknet_4_3_0_clk
*306 clknet_4_4_0_clk
*307 clknet_4_5_0_clk
*308 clknet_4_6_0_clk
*309 clknet_4_7_0_clk
*310 clknet_4_8_0_clk
*311 clknet_4_9_0_clk
*312 net0
*313 net1
*314 net10
*315 net100
*316 net1000
*317 net1001
*318 net1002
*319 net1003
*320 net1004
*321 net1005
*322 net1006
*323 net1007
*324 net1008
*325 net1009
*326 net101
*327 net1010
*328 net1011
*329 net1012
*330 net1013
*331 net1014
*332 net1015
*333 net1016
*334 net1017
*335 net1018
*336 net1019
*337 net102
*338 net1020
*339 net1021
*340 net1022
*341 net1023
*342 net1024
*343 net1025
*344 net1026
*345 net1027
*346 net1028
*347 net1029
*348 net103
*349 net1030
*350 net1031
*351 net1032
*352 net1033
*353 net1034
*354 net1035
*355 net1036
*356 net1037
*357 net1038
*358 net1039
*359 net104
*360 net1040
*361 net1041
*362 net1042
*363 net1043
*364 net1044
*365 net1045
*366 net1046
*367 net1047
*368 net1048
*369 net1049
*370 net105
*371 net1050
*372 net1051
*373 net1052
*374 net1053
*375 net1054
*376 net1056
*377 net1057
*378 net1058
*379 net106
*380 net1060
*381 net1061
*382 net1062
*383 net1063
*384 net1064
*385 net1065
*386 net1066
*387 net1067
*388 net1068
*389 net1069
*390 net107
*391 net1070
*392 net1071
*393 net1072
*394 net108
*395 net109
*396 net11
*397 net110
*398 net111
*399 net112
*400 net113
*401 net114
*402 net115
*403 net116
*404 net117
*405 net118
*406 net119
*407 net12
*408 net120
*409 net121
*410 net122
*411 net123
*412 net124
*413 net125
*414 net126
*415 net127
*416 net128
*417 net129
*418 net13
*419 net130
*420 net131
*421 net132
*422 net133
*423 net134
*424 net135
*425 net136
*426 net137
*427 net138
*428 net139
*429 net14
*430 net140
*431 net141
*432 net142
*433 net143
*434 net144
*435 net145
*436 net146
*437 net147
*438 net148
*439 net149
*440 net15
*441 net150
*442 net151
*443 net152
*444 net153
*445 net154
*446 net155
*447 net156
*448 net157
*449 net158
*450 net159
*451 net16
*452 net160
*453 net161
*454 net162
*455 net163
*456 net164
*457 net165
*458 net166
*459 net167
*460 net168
*461 net169
*462 net17
*463 net170
*464 net171
*465 net172
*466 net173
*467 net174
*468 net175
*469 net176
*470 net177
*471 net178
*472 net179
*473 net18
*474 net180
*475 net181
*476 net182
*477 net183
*478 net184
*479 net185
*480 net186
*481 net187
*482 net188
*483 net189
*484 net19
*485 net190
*486 net191
*487 net192
*488 net193
*489 net194
*490 net195
*491 net196
*492 net197
*493 net198
*494 net199
*495 net2
*496 net20
*497 net200
*498 net201
*499 net202
*500 net203
*501 net204
*502 net205
*503 net206
*504 net207
*505 net208
*506 net209
*507 net21
*508 net210
*509 net211
*510 net212
*511 net213
*512 net214
*513 net215
*514 net216
*515 net217
*516 net218
*517 net219
*518 net22
*519 net220
*520 net221
*521 net222
*522 net223
*523 net224
*524 net225
*525 net226
*526 net227
*527 net228
*528 net229
*529 net23
*530 net230
*531 net231
*532 net232
*533 net233
*534 net234
*535 net235
*536 net236
*537 net237
*538 net238
*539 net239
*540 net24
*541 net240
*542 net241
*543 net242
*544 net243
*545 net244
*546 net245
*547 net246
*548 net247
*549 net248
*550 net249
*551 net25
*552 net250
*553 net251
*554 net252
*555 net253
*556 net254
*557 net255
*558 net256
*559 net257
*560 net258
*561 net259
*562 net26
*563 net260
*564 net261
*565 net262
*566 net263
*567 net264
*568 net265
*569 net266
*570 net267
*571 net268
*572 net269
*573 net27
*574 net270
*575 net271
*576 net272
*577 net273
*578 net274
*579 net275
*580 net276
*581 net277
*582 net278
*583 net279
*584 net28
*585 net280
*586 net281
*587 net282
*588 net283
*589 net284
*590 net285
*591 net286
*592 net287
*593 net288
*594 net289
*595 net29
*596 net290
*597 net291
*598 net292
*599 net293
*600 net294
*601 net295
*602 net296
*603 net297
*604 net298
*605 net299
*606 net3
*607 net30
*608 net300
*609 net301
*610 net302
*611 net303
*612 net304
*613 net305
*614 net306
*615 net307
*616 net308
*617 net309
*618 net31
*619 net310
*620 net311
*621 net312
*622 net313
*623 net314
*624 net315
*625 net316
*626 net317
*627 net318
*628 net319
*629 net32
*630 net320
*631 net321
*632 net322
*633 net323
*634 net324
*635 net325
*636 net326
*637 net327
*638 net328
*639 net329
*640 net33
*641 net330
*642 net331
*643 net332
*644 net333
*645 net334
*646 net335
*647 net336
*648 net337
*649 net338
*650 net339
*651 net34
*652 net340
*653 net341
*654 net342
*655 net343
*656 net344
*657 net345
*658 net346
*659 net347
*660 net348
*661 net349
*662 net35
*663 net350
*664 net351
*665 net352
*666 net353
*667 net354
*668 net355
*669 net356
*670 net357
*671 net358
*672 net359
*673 net36
*674 net360
*675 net361
*676 net362
*677 net363
*678 net364
*679 net365
*680 net366
*681 net367
*682 net368
*683 net369
*684 net37
*685 net370
*686 net371
*687 net372
*688 net373
*689 net374
*690 net375
*691 net376
*692 net377
*693 net378
*694 net379
*695 net38
*696 net380
*697 net381
*698 net382
*699 net383
*700 net384
*701 net385
*702 net386
*703 net387
*704 net388
*705 net389
*706 net39
*707 net390
*708 net391
*709 net392
*710 net393
*711 net394
*712 net395
*713 net396
*714 net397
*715 net398
*716 net399
*717 net4
*718 net40
*719 net400
*720 net401
*721 net402
*722 net403
*723 net404
*724 net405
*725 net406
*726 net407
*727 net408
*728 net409
*729 net41
*730 net410
*731 net411
*732 net412
*733 net413
*734 net414
*735 net415
*736 net416
*737 net417
*738 net418
*739 net419
*740 net42
*741 net420
*742 net421
*743 net422
*744 net423
*745 net424
*746 net425
*747 net426
*748 net427
*749 net428
*750 net429
*751 net43
*752 net430
*753 net431
*754 net432
*755 net433
*756 net434
*757 net435
*758 net436
*759 net437
*760 net438
*761 net439
*762 net44
*763 net440
*764 net441
*765 net442
*766 net443
*767 net444
*768 net445
*769 net446
*770 net447
*771 net448
*772 net449
*773 net45
*774 net450
*775 net451
*776 net452
*777 net453
*778 net454
*779 net455
*780 net456
*781 net457
*782 net458
*783 net459
*784 net46
*785 net460
*786 net461
*787 net462
*788 net463
*789 net464
*790 net465
*791 net466
*792 net467
*793 net468
*794 net469
*795 net47
*796 net470
*797 net471
*798 net472
*799 net473
*800 net474
*801 net475
*802 net476
*803 net477
*804 net478
*805 net479
*806 net48
*807 net480
*808 net481
*809 net482
*810 net483
*811 net484
*812 net485
*813 net486
*814 net487
*815 net488
*816 net489
*817 net49
*818 net490
*819 net491
*820 net492
*821 net493
*822 net494
*823 net495
*824 net496
*825 net497
*826 net498
*827 net499
*828 net5
*829 net50
*830 net500
*831 net501
*832 net502
*833 net503
*834 net504
*835 net505
*836 net506
*837 net507
*838 net508
*839 net509
*840 net51
*841 net510
*842 net511
*843 net512
*844 net513
*845 net514
*846 net515
*847 net516
*848 net517
*849 net518
*850 net519
*851 net52
*852 net520
*853 net521
*854 net522
*855 net523
*856 net524
*857 net525
*858 net526
*859 net527
*860 net528
*861 net529
*862 net53
*863 net530
*864 net531
*865 net532
*866 net533
*867 net534
*868 net535
*869 net536
*870 net537
*871 net538
*872 net539
*873 net54
*874 net540
*875 net541
*876 net542
*877 net543
*878 net544
*879 net545
*880 net546
*881 net547
*882 net548
*883 net549
*884 net55
*885 net550
*886 net551
*887 net552
*888 net553
*889 net554
*890 net555
*891 net556
*892 net557
*893 net558
*894 net559
*895 net56
*896 net560
*897 net561
*898 net562
*899 net563
*900 net564
*901 net565
*902 net566
*903 net567
*904 net568
*905 net569
*906 net57
*907 net570
*908 net571
*909 net572
*910 net573
*911 net574
*912 net575
*913 net576
*914 net577
*915 net578
*916 net579
*917 net58
*918 net580
*919 net581
*920 net582
*921 net583
*922 net584
*923 net585
*924 net586
*925 net587
*926 net588
*927 net589
*928 net59
*929 net590
*930 net591
*931 net592
*932 net593
*933 net594
*934 net595
*935 net596
*936 net597
*937 net598
*938 net599
*939 net6
*940 net60
*941 net600
*942 net601
*943 net602
*944 net603
*945 net604
*946 net605
*947 net606
*948 net607
*949 net608
*950 net609
*951 net61
*952 net610
*953 net611
*954 net612
*955 net613
*956 net614
*957 net615
*958 net616
*959 net617
*960 net618
*961 net619
*962 net62
*963 net620
*964 net621
*965 net622
*966 net623
*967 net624
*968 net625
*969 net626
*970 net627
*971 net628
*972 net629
*973 net63
*974 net630
*975 net631
*976 net632
*977 net633
*978 net634
*979 net635
*980 net636
*981 net637
*982 net638
*983 net639
*984 net64
*985 net640
*986 net641
*987 net642
*988 net643
*989 net644
*990 net645
*991 net646
*992 net647
*993 net648
*994 net649
*995 net65
*996 net650
*997 net651
*998 net652
*999 net653
*1000 net654
*1001 net655
*1002 net656
*1003 net657
*1004 net658
*1005 net659
*1006 net66
*1007 net660
*1008 net661
*1009 net662
*1010 net663
*1011 net664
*1012 net665
*1013 net666
*1014 net667
*1015 net668
*1016 net669
*1017 net67
*1018 net670
*1019 net671
*1020 net672
*1021 net673
*1022 net674
*1023 net675
*1024 net676
*1025 net677
*1026 net678
*1027 net679
*1028 net68
*1029 net680
*1030 net681
*1031 net682
*1032 net683
*1033 net684
*1034 net685
*1035 net686
*1036 net687
*1037 net688
*1038 net689
*1039 net69
*1040 net690
*1041 net691
*1042 net692
*1043 net693
*1044 net694
*1045 net695
*1046 net696
*1047 net697
*1048 net698
*1049 net699
*1050 net7
*1051 net70
*1052 net700
*1053 net701
*1054 net702
*1055 net703
*1056 net704
*1057 net705
*1058 net706
*1059 net707
*1060 net708
*1061 net709
*1062 net71
*1063 net710
*1064 net711
*1065 net712
*1066 net713
*1067 net714
*1068 net715
*1069 net716
*1070 net717
*1071 net718
*1072 net719
*1073 net72
*1074 net720
*1075 net721
*1076 net722
*1077 net723
*1078 net724
*1079 net725
*1080 net726
*1081 net727
*1082 net728
*1083 net729
*1084 net73
*1085 net730
*1086 net731
*1087 net732
*1088 net733
*1089 net734
*1090 net735
*1091 net736
*1092 net737
*1093 net738
*1094 net739
*1095 net74
*1096 net740
*1097 net741
*1098 net742
*1099 net743
*1100 net744
*1101 net745
*1102 net746
*1103 net747
*1104 net748
*1105 net749
*1106 net75
*1107 net750
*1108 net751
*1109 net752
*1110 net753
*1111 net754
*1112 net755
*1113 net756
*1114 net757
*1115 net758
*1116 net759
*1117 net76
*1118 net760
*1119 net761
*1120 net762
*1121 net763
*1122 net764
*1123 net765
*1124 net766
*1125 net767
*1126 net768
*1127 net769
*1128 net77
*1129 net770
*1130 net771
*1131 net772
*1132 net773
*1133 net774
*1134 net775
*1135 net776
*1136 net777
*1137 net778
*1138 net779
*1139 net78
*1140 net780
*1141 net781
*1142 net782
*1143 net783
*1144 net784
*1145 net785
*1146 net786
*1147 net787
*1148 net788
*1149 net789
*1150 net79
*1151 net790
*1152 net791
*1153 net792
*1154 net793
*1155 net794
*1156 net795
*1157 net796
*1158 net797
*1159 net798
*1160 net799
*1161 net8
*1162 net80
*1163 net800
*1164 net801
*1165 net802
*1166 net803
*1167 net804
*1168 net805
*1169 net806
*1170 net807
*1171 net808
*1172 net809
*1173 net81
*1174 net810
*1175 net811
*1176 net812
*1177 net813
*1178 net814
*1179 net815
*1180 net816
*1181 net817
*1182 net818
*1183 net819
*1184 net82
*1185 net820
*1186 net821
*1187 net822
*1188 net823
*1189 net824
*1190 net825
*1191 net826
*1192 net827
*1193 net828
*1194 net829
*1195 net83
*1196 net830
*1197 net831
*1198 net832
*1199 net833
*1200 net834
*1201 net835
*1202 net836
*1203 net837
*1204 net838
*1205 net839
*1206 net84
*1207 net840
*1208 net841
*1209 net842
*1210 net843
*1211 net844
*1212 net845
*1213 net846
*1214 net847
*1215 net848
*1216 net849
*1217 net85
*1218 net850
*1219 net851
*1220 net852
*1221 net853
*1222 net854
*1223 net855
*1224 net856
*1225 net857
*1226 net858
*1227 net859
*1228 net86
*1229 net860
*1230 net861
*1231 net862
*1232 net863
*1233 net864
*1234 net865
*1235 net866
*1236 net867
*1237 net868
*1238 net869
*1239 net87
*1240 net870
*1241 net871
*1242 net872
*1243 net873
*1244 net874
*1245 net875
*1246 net876
*1247 net877
*1248 net878
*1249 net879
*1250 net88
*1251 net880
*1252 net881
*1253 net882
*1254 net883
*1255 net884
*1256 net885
*1257 net886
*1258 net887
*1259 net888
*1260 net889
*1261 net89
*1262 net890
*1263 net891
*1264 net892
*1265 net893
*1266 net894
*1267 net895
*1268 net896
*1269 net897
*1270 net898
*1271 net899
*1272 net9
*1273 net90
*1274 net900
*1275 net901
*1276 net902
*1277 net903
*1278 net904
*1279 net905
*1280 net906
*1281 net907
*1282 net908
*1283 net909
*1284 net91
*1285 net910
*1286 net911
*1287 net912
*1288 net913
*1289 net914
*1290 net915
*1291 net916
*1292 net917
*1293 net918
*1294 net919
*1295 net92
*1296 net920
*1297 net921
*1298 net922
*1299 net923
*1300 net924
*1301 net925
*1302 net926
*1303 net927
*1304 net928
*1305 net929
*1306 net93
*1307 net930
*1308 net931
*1309 net932
*1310 net933
*1311 net934
*1312 net935
*1313 net936
*1314 net937
*1315 net938
*1316 net939
*1317 net94
*1318 net940
*1319 net941
*1320 net942
*1321 net943
*1322 net944
*1323 net945
*1324 net946
*1325 net947
*1326 net948
*1327 net949
*1328 net95
*1329 net950
*1330 net951
*1331 net952
*1332 net953
*1333 net954
*1334 net955
*1335 net956
*1336 net957
*1337 net958
*1338 net959
*1339 net96
*1340 net960
*1341 net961
*1342 net962
*1343 net963
*1344 net964
*1345 net965
*1346 net966
*1347 net967
*1348 net968
*1349 net969
*1350 net97
*1351 net970
*1352 net971
*1353 net972
*1354 net973
*1355 net974
*1356 net975
*1357 net976
*1358 net977
*1359 net978
*1360 net979
*1361 net98
*1362 net980
*1363 net981
*1364 net982
*1365 net983
*1366 net984
*1367 net985
*1368 net986
*1369 net987
*1370 net988
*1371 net989
*1372 net99
*1373 net990
*1374 net991
*1375 net992
*1376 net993
*1377 net994
*1378 net995
*1379 net996
*1380 net997
*1381 net998
*1382 net999
*1383 ANTENNA_1
*1384 ANTENNA_c101_A1
*1385 ANTENNA_c105_S1
*1386 ANTENNA_c107_A2
*1387 ANTENNA_c121_CLK_N
*1388 ANTENNA_c122_CLK_N
*1389 ANTENNA_c123_CLK
*1390 ANTENNA_c124_CLK
*1391 ANTENNA_c125_CLK
*1392 ANTENNA_c127_CLK
*1393 ANTENNA_c129_CLK_N
*1394 ANTENNA_c132_A
*1395 ANTENNA_c134_X
*1396 ANTENNA_c140_X
*1397 ANTENNA_c146_X
*1398 ANTENNA_c147_A
*1399 ANTENNA_c148_A
*1400 ANTENNA_c149_A2
*1401 ANTENNA_c152_S0
*1402 ANTENNA_c154_A
*1403 ANTENNA_c156_Y
*1404 ANTENNA_c157_A
*1405 ANTENNA_c159_A
*1406 ANTENNA_c164_CLK
*1407 ANTENNA_c164_SET_B
*1408 ANTENNA_c167_A
*1409 ANTENNA_c168_A
*1410 ANTENNA_c169_S0
*1411 ANTENNA_c172_A3
*1412 ANTENNA_c181_A
*1413 ANTENNA_c185_A
*1414 ANTENNA_c186_A
*1415 ANTENNA_c194_A
*1416 ANTENNA_c204_A
*1417 ANTENNA_c207_A
*1418 ANTENNA_c212_A
*1419 ANTENNA_c213_B1_N
*1420 ANTENNA_c214_A
*1421 ANTENNA_c217_B1
*1422 ANTENNA_c240_B1_N
*1423 ANTENNA_c250_CLK
*1424 ANTENNA_c254_CLK_N
*1425 ANTENNA_c255_CLK
*1426 ANTENNA_c25_B
*1427 ANTENNA_c278_X
*1428 ANTENNA_c27_B
*1429 ANTENNA_c281_B1_N
*1430 ANTENNA_c283_A1
*1431 ANTENNA_c286_A
*1432 ANTENNA_c286_B
*1433 ANTENNA_c288_B
*1434 ANTENNA_c293_A
*1435 ANTENNA_c300_A
*1436 ANTENNA_c302_A3
*1437 ANTENNA_c305_S1
*1438 ANTENNA_c306_B1
*1439 ANTENNA_c315_Y
*1440 ANTENNA_c323_S0
*1441 ANTENNA_c326_A
*1442 ANTENNA_c327_S1
*1443 ANTENNA_c328_B1
*1444 ANTENNA_c329_B1
*1445 ANTENNA_c32_B1
*1446 ANTENNA_c335_X
*1447 ANTENNA_c343_B1_N
*1448 ANTENNA_c345_A
*1449 ANTENNA_c346_X
*1450 ANTENNA_c348_B1
*1451 ANTENNA_c349_B1_N
*1452 ANTENNA_c34_SCE
*1453 ANTENNA_c351_A3
*1454 ANTENNA_c361_A0
*1455 ANTENNA_c362_B1_N
*1456 ANTENNA_c367_B
*1457 ANTENNA_c369_A
*1458 ANTENNA_c373_X
*1459 ANTENNA_c375_X
*1460 ANTENNA_c378_Y
*1461 ANTENNA_c37_B1_N
*1462 ANTENNA_c37_X
*1463 ANTENNA_c382_A
*1464 ANTENNA_c383_A1
*1465 ANTENNA_c384_A
*1466 ANTENNA_c385_A2
*1467 ANTENNA_c385_A3
*1468 ANTENNA_c38_B1
*1469 ANTENNA_c392_A4
*1470 ANTENNA_c394_Q
*1471 ANTENNA_c394_Q_N
*1472 ANTENNA_c395_A3
*1473 ANTENNA_c395_S1
*1474 ANTENNA_c396_A
*1475 ANTENNA_c396_X
*1476 ANTENNA_c397_A
*1477 ANTENNA_c403_A
*1478 ANTENNA_c404_B
*1479 ANTENNA_c416_X
*1480 ANTENNA_c417_X
*1481 ANTENNA_c418_X
*1482 ANTENNA_c419_A
*1483 ANTENNA_c419_X
*1484 ANTENNA_c41_A3
*1485 ANTENNA_c41_S1
*1486 ANTENNA_c420_A
*1487 ANTENNA_c420_B
*1488 ANTENNA_c421_A
*1489 ANTENNA_c421_B
*1490 ANTENNA_c422_B
*1491 ANTENNA_c423_B
*1492 ANTENNA_c425_A
*1493 ANTENNA_c425_B
*1494 ANTENNA_c426_B
*1495 ANTENNA_c426_Y
*1496 ANTENNA_c429_A2
*1497 ANTENNA_c429_A3
*1498 ANTENNA_c42_A2
*1499 ANTENNA_c42_A3
*1500 ANTENNA_c42_A4
*1501 ANTENNA_c431_A
*1502 ANTENNA_c433_B
*1503 ANTENNA_c435_A2
*1504 ANTENNA_c435_B1_N
*1505 ANTENNA_c436_X
*1506 ANTENNA_c438_A1
*1507 ANTENNA_c438_A3
*1508 ANTENNA_c438_S0
*1509 ANTENNA_c439_A1
*1510 ANTENNA_c439_S0
*1511 ANTENNA_c440_A
*1512 ANTENNA_c441_B
*1513 ANTENNA_c446_Y
*1514 ANTENNA_c448_A
*1515 ANTENNA_c452_A
*1516 ANTENNA_c461_A3
*1517 ANTENNA_c461_S1
*1518 ANTENNA_c466_X
*1519 ANTENNA_c467_A2
*1520 ANTENNA_c468_A
*1521 ANTENNA_c469_A
*1522 ANTENNA_c470_B
*1523 ANTENNA_c471_A
*1524 ANTENNA_c475_A1
*1525 ANTENNA_c475_S0
*1526 ANTENNA_c476_A
*1527 ANTENNA_c478_A2
*1528 ANTENNA_c479_B
*1529 ANTENNA_c480_S1
*1530 ANTENNA_c483_B1
*1531 ANTENNA_c484_A
*1532 ANTENNA_c486_B
*1533 ANTENNA_c494_CLK
*1534 ANTENNA_c500_A3
*1535 ANTENNA_c503_B1
*1536 ANTENNA_c507_B
*1537 ANTENNA_c508_B
*1538 ANTENNA_c511_A
*1539 ANTENNA_c513_A2
*1540 ANTENNA_c513_B1_N
*1541 ANTENNA_c514_Y
*1542 ANTENNA_c519_Y
*1543 ANTENNA_c520_X
*1544 ANTENNA_c521_A1
*1545 ANTENNA_c521_B1_N
*1546 ANTENNA_c522_B1_N
*1547 ANTENNA_c523_A2
*1548 ANTENNA_c524_A2
*1549 ANTENNA_c525_A2
*1550 ANTENNA_c526_A
*1551 ANTENNA_c527_B1_N
*1552 ANTENNA_c533_X
*1553 ANTENNA_c534_Y
*1554 ANTENNA_c535_X
*1555 ANTENNA_c538_D
*1556 ANTENNA_c539_SCD
*1557 ANTENNA_c540_B1_N
*1558 ANTENNA_c541_A1
*1559 ANTENNA_c543_A2
*1560 ANTENNA_c544_A2
*1561 ANTENNA_c546_B1
*1562 ANTENNA_c548_S1
*1563 ANTENNA_c550_A
*1564 ANTENNA_c550_B
*1565 ANTENNA_c555_B
*1566 ANTENNA_c556_A
*1567 ANTENNA_c563_B1_N
*1568 ANTENNA_c564_A2
*1569 ANTENNA_c568_B1_N
*1570 ANTENNA_c56_A4
*1571 ANTENNA_c571_X
*1572 ANTENNA_c572_X
*1573 ANTENNA_c573_A
*1574 ANTENNA_c578_B
*1575 ANTENNA_c580_A1
*1576 ANTENNA_c583_B1_N
*1577 ANTENNA_c586_A
*1578 ANTENNA_c591_A3
*1579 ANTENNA_c592_A3
*1580 ANTENNA_c592_B1
*1581 ANTENNA_c593_A
*1582 ANTENNA_c597_Y
*1583 ANTENNA_c59_CLK_N
*1584 ANTENNA_c59_SCD
*1585 ANTENNA_c601_CLK
*1586 ANTENNA_c601_SCD
*1587 ANTENNA_c603_A2
*1588 ANTENNA_c609_Y
*1589 ANTENNA_c610_CLK
*1590 ANTENNA_c624_B
*1591 ANTENNA_c628_B
*1592 ANTENNA_c62_B1
*1593 ANTENNA_c635_A
*1594 ANTENNA_c654_A3
*1595 ANTENNA_c655_A1
*1596 ANTENNA_c657_S1
*1597 ANTENNA_c66_X
*1598 ANTENNA_c67_A
*1599 ANTENNA_c697_X
*1600 ANTENNA_c698_B1_N
*1601 ANTENNA_c699_A2
*1602 ANTENNA_c703_B1
*1603 ANTENNA_c703_X
*1604 ANTENNA_c707_A
*1605 ANTENNA_c708_A
*1606 ANTENNA_c70_B
*1607 ANTENNA_c710_X
*1608 ANTENNA_c711_B
*1609 ANTENNA_c712_A2
*1610 ANTENNA_c715_B
*1611 ANTENNA_c719_A
*1612 ANTENNA_c722_S0
*1613 ANTENNA_c725_A3
*1614 ANTENNA_c732_A
*1615 ANTENNA_c742_RESET_B
*1616 ANTENNA_c746_A
*1617 ANTENNA_c746_X
*1618 ANTENNA_c747_A2
*1619 ANTENNA_c747_A3
*1620 ANTENNA_c751_A
*1621 ANTENNA_c754_A
*1622 ANTENNA_c756_CLK
*1623 ANTENNA_c767_CLK_N
*1624 ANTENNA_c77_A
*1625 ANTENNA_c80_X
*1626 ANTENNA_c82_A
*1627 ANTENNA_c85_A
*1628 ANTENNA_c86_B1
*1629 ANTENNA_c87_A3
*1630 ANTENNA_c88_A
*1631 ANTENNA_clkbuf_0_clk_A
*1632 ANTENNA_clkbuf_0_clk_X
*1633 ANTENNA_clkbuf_0_net563_A
*1634 ANTENNA_clkbuf_1_0__f_net145_X
*1635 ANTENNA_clkbuf_1_0__f_net563_X
*1636 ANTENNA_clkbuf_1_1__f_net563_X
*1637 ANTENNA_clkbuf_1_1__f_net984_X
*1638 ANTENNA_clkbuf_4_0_0_clk_A
*1639 ANTENNA_clkbuf_4_0_0_clk_X
*1640 ANTENNA_clkbuf_4_10_0_clk_A
*1641 ANTENNA_clkbuf_4_11_0_clk_A
*1642 ANTENNA_clkbuf_4_11_0_clk_X
*1643 ANTENNA_clkbuf_4_12_0_clk_A
*1644 ANTENNA_clkbuf_4_13_0_clk_A
*1645 ANTENNA_clkbuf_4_13_0_clk_X
*1646 ANTENNA_clkbuf_4_14_0_clk_A
*1647 ANTENNA_clkbuf_4_15_0_clk_A
*1648 ANTENNA_clkbuf_4_1_0_clk_A
*1649 ANTENNA_clkbuf_4_1_0_clk_X
*1650 ANTENNA_clkbuf_4_2_0_clk_A
*1651 ANTENNA_clkbuf_4_3_0_clk_A
*1652 ANTENNA_clkbuf_4_4_0_clk_A
*1653 ANTENNA_clkbuf_4_5_0_clk_A
*1654 ANTENNA_clkbuf_4_6_0_clk_A
*1655 ANTENNA_clkbuf_4_6_0_clk_X
*1656 ANTENNA_clkbuf_4_7_0_clk_A
*1657 ANTENNA_clkbuf_4_7_0_clk_X
*1658 ANTENNA_clkbuf_4_8_0_clk_A
*1659 ANTENNA_clkbuf_4_9_0_clk_A
*1660 ANTENNA_hold39_A
*1661 ANTENNA_hold7_A
*1662 ANTENNA_input10_A
*1663 ANTENNA_input11_A
*1664 ANTENNA_input12_A
*1665 ANTENNA_input13_A
*1666 ANTENNA_input14_A
*1667 ANTENNA_input15_A
*1668 ANTENNA_input15_X
*1669 ANTENNA_input16_A
*1670 ANTENNA_input17_A
*1671 ANTENNA_input18_A
*1672 ANTENNA_input19_A
*1673 ANTENNA_input1_A
*1674 ANTENNA_input20_A
*1675 ANTENNA_input21_A
*1676 ANTENNA_input21_X
*1677 ANTENNA_input22_A
*1678 ANTENNA_input23_A
*1679 ANTENNA_input24_A
*1680 ANTENNA_input2_A
*1681 ANTENNA_input3_A
*1682 ANTENNA_input4_A
*1683 ANTENNA_input5_A
*1684 ANTENNA_input6_A
*1685 ANTENNA_input7_A
*1686 ANTENNA_input8_A
*1687 ANTENNA_input9_A
*1688 ANTENNA_max_cap41_X
*1689 ANTENNA_merge782_S1
*1690 ANTENNA_merge785_A1
*1691 ANTENNA_merge792_D
*1692 ANTENNA_merge793_A2
*1693 ANTENNA_merge794_B1
*1694 ANTENNA_merge797_SCD
*1695 ANTENNA_merge799_A
*1696 ANTENNA_merge801_B1_N
*1697 ANTENNA_merge803_B1_N
*1698 ANTENNA_merge805_A
*1699 ANTENNA_merge807_SCD
*1700 ANTENNA_merge808_A2
*1701 ANTENNA_merge808_B1_N
*1702 ANTENNA_merge809_A
*1703 ANTENNA_merge812_A2
*1704 ANTENNA_merge814_A0
*1705 ANTENNA_merge814_A2
*1706 ANTENNA_merge815_A
*1707 ANTENNA_merge817_A1
*1708 ANTENNA_merge818_A3
*1709 ANTENNA_merge820_X
*1710 ANTENNA_merge821_A3
*1711 ANTENNA_merge822_A2
*1712 ANTENNA_merge824_A2
*1713 ANTENNA_merge825_SCD
*1714 ANTENNA_merge828_B1
*1715 ANTENNA_merge829_D
*1716 ANTENNA_merge829_SCD
*1717 ANTENNA_merge830_A2
*1718 ANTENNA_merge831_B1
*1719 ANTENNA_merge833_A1
*1720 ANTENNA_merge836_A2
*1721 ANTENNA_merge840_A2
*1722 ANTENNA_merge841_A1
*1723 ANTENNA_merge841_A2
*1724 ANTENNA_merge844_CLK
*1725 ANTENNA_merge846_A2
*1726 ANTENNA_merge849_B1
*1727 ANTENNA_merge852_A3
*1728 ANTENNA_merge852_B1
*1729 ANTENNA_merge853_SCD
*1730 ANTENNA_merge853_SCE
*1731 ANTENNA_merge855_A1
*1732 ANTENNA_merge855_A2
*1733 ANTENNA_merge858_SCD
*1734 ANTENNA_merge859_B1
*1735 ANTENNA_merge860_A3
*1736 ANTENNA_merge861_DE
*1737 ANTENNA_merge862_A2
*1738 ANTENNA_merge863_A1
*1739 ANTENNA_merge863_B1_N
*1740 ANTENNA_merge865_A3
*1741 ANTENNA_merge867_A1
*1742 ANTENNA_merge867_S1
*1743 ANTENNA_merge868_A2
*1744 ANTENNA_merge869_A3
*1745 ANTENNA_merge869_S0
*1746 ANTENNA_merge869_S1
*1747 ANTENNA_merge870_S0
*1748 ANTENNA_merge870_S1
*1749 ANTENNA_merge871_A1
*1750 ANTENNA_merge872_A3
*1751 ANTENNA_merge872_S0
*1752 ANTENNA_merge872_S1
*1753 ANTENNA_merge874_A3
*1754 ANTENNA_merge874_S1
*1755 ANTENNA_merge877_B1
*1756 ANTENNA_merge879_A1
*1757 ANTENNA_merge879_A2
*1758 ANTENNA_merge880_A2
*1759 ANTENNA_merge880_A3
*1760 ANTENNA_merge880_S0
*1761 ANTENNA_merge880_S1
*1762 ANTENNA_merge881_A2
*1763 ANTENNA_merge882_A1
*1764 ANTENNA_merge883_A1
*1765 ANTENNA_merge883_S1
*1766 ANTENNA_merge884_A1
*1767 ANTENNA_merge884_S1
*1768 ANTENNA_merge886_A0
*1769 ANTENNA_merge887_A2
*1770 ANTENNA_merge887_X
*1771 ANTENNA_merge889_CLK
*1772 ANTENNA_merge902_CLK_N
*1773 ANTENNA_merge907_CLK
*1774 ANTENNA_merge920_GATE
*1775 ANTENNA_merge927_Y
*1776 ANTENNA_merge931_GATE_N
*1777 ANTENNA_merge932_GATE_N
*1778 ANTENNA_merge934_GATE