*SPEF "ieee 1481-1999"
*DESIGN "netlist_0"
*DATE "17:31:12 Monday July 29, 2024"
*VENDOR "The OpenROAD Project"
*PROGRAM "OpenROAD"
*VERSION "d423155d69de7f683a23f6916ead418a615ad4ad"
*DESIGN_FLOW "NAME_SCOPE LOCAL" "PIN_CAP NONE"
*DIVIDER /
*DELIMITER :
*BUS_DELIMITER []
*T_UNIT 1 NS
*C_UNIT 1 PF
*R_UNIT 1 OHM
*L_UNIT 1 HENRY

*NAME_MAP
*3 clk
*4 in0
*5 in1
*6 in10
*7 in11
*8 in12
*9 in13
*10 in14
*11 in15
*12 in16
*13 in17
*14 in18
*15 in19
*16 in2
*17 in20
*18 in21
*19 in22
*20 in23
*21 in24
*22 in3
*23 in4
*24 in5
*25 in6
*26 in7
*27 in8
*28 in9
*29 out0
*30 out1
*31 out10
*32 out11
*33 out12
*34 out13
*35 out14
*36 out15
*37 out16
*38 out17
*39 out18
*40 out19
*41 out2
*42 out20
*43 out21
*44 out22
*45 out23
*46 out24
*47 out3
*48 out4
*49 out5
*50 out6
*51 out7
*52 out8
*53 out9
*54 rst
*55 clknet_0_clk
*56 clknet_0_net216
*57 clknet_0_net217
*58 clknet_0_net218
*59 clknet_0_net219
*60 clknet_0_net220
*61 clknet_0_net230
*62 clknet_0_net270
*63 clknet_0_net273
*64 clknet_0_net276
*65 clknet_0_net279
*66 clknet_0_net287
*67 clknet_0_net290
*68 clknet_0_net291
*69 clknet_0_net296
*70 clknet_0_net298
*71 clknet_0_net300
*72 clknet_0_net304
*73 clknet_0_net309
*74 clknet_0_net313
*75 clknet_0_net314
*76 clknet_0_net315
*77 clknet_0_net333
*78 clknet_0_net368
*79 clknet_0_net408
*80 clknet_0_net410
*81 clknet_0_net411
*82 clknet_0_net412
*83 clknet_0_net436
*84 clknet_0_net456
*85 clknet_0_net459
*86 clknet_0_net462
*87 clknet_0_net464
*88 clknet_0_net473
*89 clknet_0_net489
*90 clknet_0_net491
*91 clknet_0_net498
*92 clknet_0_net499
*93 clknet_0_net502
*94 clknet_0_net580
*95 clknet_0_net582
*96 clknet_0_net586
*97 clknet_0_net587
*98 clknet_0_net595
*99 clknet_0_net679
*100 clknet_0_net680
*101 clknet_0_net681
*102 clknet_0_net695
*103 clknet_0_net730
*104 clknet_0_net738
*105 clknet_0_net814
*106 clknet_0_net816
*107 clknet_0_net828
*108 clknet_0_net830
*109 clknet_0_net850
*110 clknet_0_net851
*111 clknet_0_net869
*112 clknet_0_net884
*113 clknet_0_net885
*114 clknet_0_net886
*115 clknet_0_net903
*116 clknet_0_net904
*117 clknet_0_net905
*118 clknet_0_net963
*119 clknet_0_net964
*120 clknet_1_0__leaf_net216
*121 clknet_1_0__leaf_net217
*122 clknet_1_0__leaf_net218
*123 clknet_1_0__leaf_net219
*124 clknet_1_0__leaf_net220
*125 clknet_1_0__leaf_net230
*126 clknet_1_0__leaf_net270
*127 clknet_1_0__leaf_net273
*128 clknet_1_0__leaf_net276
*129 clknet_1_0__leaf_net279
*130 clknet_1_0__leaf_net287
*131 clknet_1_0__leaf_net290
*132 clknet_1_0__leaf_net291
*133 clknet_1_0__leaf_net296
*134 clknet_1_0__leaf_net298
*135 clknet_1_0__leaf_net300
*136 clknet_1_0__leaf_net304
*137 clknet_1_0__leaf_net309
*138 clknet_1_0__leaf_net313
*139 clknet_1_0__leaf_net314
*140 clknet_1_0__leaf_net315
*141 clknet_1_0__leaf_net333
*142 clknet_1_0__leaf_net368
*143 clknet_1_0__leaf_net408
*144 clknet_1_0__leaf_net410
*145 clknet_1_0__leaf_net411
*146 clknet_1_0__leaf_net412
*147 clknet_1_0__leaf_net436
*148 clknet_1_0__leaf_net456
*149 clknet_1_0__leaf_net459
*150 clknet_1_0__leaf_net462
*151 clknet_1_0__leaf_net464
*152 clknet_1_0__leaf_net473
*153 clknet_1_0__leaf_net489
*154 clknet_1_0__leaf_net491
*155 clknet_1_0__leaf_net498
*156 clknet_1_0__leaf_net499
*157 clknet_1_0__leaf_net502
*158 clknet_1_0__leaf_net580
*159 clknet_1_0__leaf_net582
*160 clknet_1_0__leaf_net586
*161 clknet_1_0__leaf_net587
*162 clknet_1_0__leaf_net595
*163 clknet_1_0__leaf_net679
*164 clknet_1_0__leaf_net680
*165 clknet_1_0__leaf_net681
*166 clknet_1_0__leaf_net695
*167 clknet_1_0__leaf_net730
*168 clknet_1_0__leaf_net738
*169 clknet_1_0__leaf_net814
*170 clknet_1_0__leaf_net816
*171 clknet_1_0__leaf_net828
*172 clknet_1_0__leaf_net830
*173 clknet_1_0__leaf_net850
*174 clknet_1_0__leaf_net851
*175 clknet_1_0__leaf_net869
*176 clknet_1_0__leaf_net884
*177 clknet_1_0__leaf_net885
*178 clknet_1_0__leaf_net886
*179 clknet_1_0__leaf_net903
*180 clknet_1_0__leaf_net904
*181 clknet_1_0__leaf_net905
*182 clknet_1_0__leaf_net963
*183 clknet_1_0__leaf_net964
*184 clknet_1_1__leaf_net216
*185 clknet_1_1__leaf_net217
*186 clknet_1_1__leaf_net218
*187 clknet_1_1__leaf_net219
*188 clknet_1_1__leaf_net220
*189 clknet_1_1__leaf_net230
*190 clknet_1_1__leaf_net270
*191 clknet_1_1__leaf_net273
*192 clknet_1_1__leaf_net276
*193 clknet_1_1__leaf_net279
*194 clknet_1_1__leaf_net287
*195 clknet_1_1__leaf_net290
*196 clknet_1_1__leaf_net291
*197 clknet_1_1__leaf_net296
*198 clknet_1_1__leaf_net298
*199 clknet_1_1__leaf_net300
*200 clknet_1_1__leaf_net304
*201 clknet_1_1__leaf_net309
*202 clknet_1_1__leaf_net313
*203 clknet_1_1__leaf_net314
*204 clknet_1_1__leaf_net315
*205 clknet_1_1__leaf_net333
*206 clknet_1_1__leaf_net368
*207 clknet_1_1__leaf_net408
*208 clknet_1_1__leaf_net410
*209 clknet_1_1__leaf_net411
*210 clknet_1_1__leaf_net412
*211 clknet_1_1__leaf_net436
*212 clknet_1_1__leaf_net456
*213 clknet_1_1__leaf_net459
*214 clknet_1_1__leaf_net462
*215 clknet_1_1__leaf_net464
*216 clknet_1_1__leaf_net473
*217 clknet_1_1__leaf_net489
*218 clknet_1_1__leaf_net491
*219 clknet_1_1__leaf_net498
*220 clknet_1_1__leaf_net499
*221 clknet_1_1__leaf_net502
*222 clknet_1_1__leaf_net580
*223 clknet_1_1__leaf_net582
*224 clknet_1_1__leaf_net586
*225 clknet_1_1__leaf_net587
*226 clknet_1_1__leaf_net595
*227 clknet_1_1__leaf_net679
*228 clknet_1_1__leaf_net680
*229 clknet_1_1__leaf_net681
*230 clknet_1_1__leaf_net695
*231 clknet_1_1__leaf_net730
*232 clknet_1_1__leaf_net738
*233 clknet_1_1__leaf_net814
*234 clknet_1_1__leaf_net816
*235 clknet_1_1__leaf_net828
*236 clknet_1_1__leaf_net830
*237 clknet_1_1__leaf_net850
*238 clknet_1_1__leaf_net851
*239 clknet_1_1__leaf_net869
*240 clknet_1_1__leaf_net884
*241 clknet_1_1__leaf_net885
*242 clknet_1_1__leaf_net886
*243 clknet_1_1__leaf_net903
*244 clknet_1_1__leaf_net904
*245 clknet_1_1__leaf_net905
*246 clknet_1_1__leaf_net963
*247 clknet_1_1__leaf_net964
*248 clknet_4_0_0_clk
*249 clknet_4_10_0_clk
*250 clknet_4_11_0_clk
*251 clknet_4_12_0_clk
*252 clknet_4_13_0_clk
*253 clknet_4_14_0_clk
*254 clknet_4_15_0_clk
*255 clknet_4_1_0_clk
*256 clknet_4_2_0_clk
*257 clknet_4_3_0_clk
*258 clknet_4_4_0_clk
*259 clknet_4_5_0_clk
*260 clknet_4_6_0_clk
*261 clknet_4_7_0_clk
*262 clknet_4_8_0_clk
*263 clknet_4_9_0_clk
*264 net0
*265 net1
*266 net10
*267 net100
*268 net1000
*269 net1001
*270 net1002
*271 net1003
*272 net1004
*273 net1005
*274 net1006
*275 net1007
*276 net1008
*277 net1009
*278 net101
*279 net1010
*280 net1011
*281 net1012
*282 net1013
*283 net1014
*284 net1015
*285 net1016
*286 net1017
*287 net1018
*288 net1019
*289 net102
*290 net1020
*291 net1021
*292 net1022
*293 net1023
*294 net1024
*295 net1025
*296 net1026
*297 net1027
*298 net1028
*299 net1029
*300 net103
*301 net1030
*302 net1031
*303 net1032
*304 net1033
*305 net1034
*306 net1035
*307 net1036
*308 net1037
*309 net1038
*310 net1039
*311 net104
*312 net1040
*313 net1041
*314 net1042
*315 net1043
*316 net1044
*317 net1045
*318 net1046
*319 net1047
*320 net1048
*321 net1049
*322 net105
*323 net1050
*324 net1051
*325 net1052
*326 net1053
*327 net1054
*328 net1055
*329 net1056
*330 net1057
*331 net1058
*332 net1059
*333 net106
*334 net1060
*335 net1061
*336 net1062
*337 net1063
*338 net1064
*339 net1065
*340 net1066
*341 net1067
*342 net1068
*343 net1069
*344 net107
*345 net1070
*346 net1071
*347 net1072
*348 net1073
*349 net1074
*350 net1075
*351 net1076
*352 net1077
*353 net1078
*354 net1079
*355 net108
*356 net1080
*357 net1081
*358 net1082
*359 net1083
*360 net1084
*361 net1085
*362 net1086
*363 net109
*364 net11
*365 net110
*366 net111
*367 net112
*368 net113
*369 net114
*370 net115
*371 net116
*372 net117
*373 net118
*374 net119
*375 net12
*376 net120
*377 net121
*378 net122
*379 net123
*380 net124
*381 net125
*382 net126
*383 net127
*384 net128
*385 net129
*386 net13
*387 net130
*388 net131
*389 net132
*390 net133
*391 net134
*392 net135
*393 net136
*394 net137
*395 net138
*396 net139
*397 net14
*398 net140
*399 net141
*400 net142
*401 net143
*402 net144
*403 net145
*404 net146
*405 net147
*406 net148
*407 net149
*408 net15
*409 net150
*410 net151
*411 net152
*412 net153
*413 net154
*414 net155
*415 net156
*416 net157
*417 net158
*418 net159
*419 net16
*420 net160
*421 net161
*422 net162
*423 net163
*424 net164
*425 net165
*426 net166
*427 net167
*428 net168
*429 net169
*430 net17
*431 net170
*432 net171
*433 net172
*434 net173
*435 net174
*436 net175
*437 net176
*438 net177
*439 net178
*440 net179
*441 net18
*442 net180
*443 net181
*444 net182
*445 net183
*446 net184
*447 net185
*448 net186
*449 net187
*450 net188
*451 net189
*452 net19
*453 net190
*454 net191
*455 net192
*456 net193
*457 net194
*458 net195
*459 net196
*460 net197
*461 net198
*462 net199
*463 net2
*464 net20
*465 net200
*466 net201
*467 net202
*468 net203
*469 net204
*470 net205
*471 net206
*472 net207
*473 net208
*474 net209
*475 net21
*476 net210
*477 net211
*478 net212
*479 net213
*480 net214
*481 net215
*482 net216
*483 net217
*484 net218
*485 net219
*486 net22
*487 net220
*488 net221
*489 net222
*490 net223
*491 net224
*492 net225
*493 net226
*494 net227
*495 net228
*496 net229
*497 net23
*498 net230
*499 net231
*500 net232
*501 net233
*502 net234
*503 net235
*504 net236
*505 net237
*506 net238
*507 net239
*508 net24
*509 net240
*510 net241
*511 net242
*512 net243
*513 net244
*514 net245
*515 net246
*516 net247
*517 net248
*518 net249
*519 net25
*520 net250
*521 net251
*522 net252
*523 net253
*524 net254
*525 net255
*526 net256
*527 net257
*528 net258
*529 net259
*530 net26
*531 net260
*532 net261
*533 net262
*534 net263
*535 net264
*536 net265
*537 net266
*538 net267
*539 net268
*540 net269
*541 net27
*542 net270
*543 net271
*544 net272
*545 net273
*546 net274
*547 net275
*548 net276
*549 net277
*550 net278
*551 net279
*552 net28
*553 net280
*554 net281
*555 net282
*556 net283
*557 net284
*558 net285
*559 net286
*560 net287
*561 net288
*562 net289
*563 net29
*564 net290
*565 net291
*566 net292
*567 net293
*568 net294
*569 net295
*570 net296
*571 net297
*572 net298
*573 net299
*574 net3
*575 net30
*576 net300
*577 net301
*578 net302
*579 net303
*580 net304
*581 net305
*582 net306
*583 net307
*584 net308
*585 net309
*586 net31
*587 net310
*588 net311
*589 net312
*590 net313
*591 net314
*592 net315
*593 net316
*594 net317
*595 net318
*596 net319
*597 net32
*598 net320
*599 net321
*600 net322
*601 net323
*602 net324
*603 net325
*604 net326
*605 net327
*606 net328
*607 net329
*608 net33
*609 net330
*610 net331
*611 net332
*612 net333
*613 net334
*614 net335
*615 net336
*616 net337
*617 net338
*618 net339
*619 net34
*620 net340
*621 net341
*622 net342
*623 net343
*624 net344
*625 net345
*626 net346
*627 net347
*628 net348
*629 net349
*630 net35
*631 net350
*632 net351
*633 net352
*634 net353
*635 net354
*636 net355
*637 net356
*638 net357
*639 net358
*640 net359
*641 net36
*642 net360
*643 net361
*644 net362
*645 net363
*646 net364
*647 net365
*648 net366
*649 net367
*650 net368
*651 net369
*652 net37
*653 net370
*654 net371
*655 net372
*656 net373
*657 net374
*658 net375
*659 net376
*660 net377
*661 net378
*662 net379
*663 net38
*664 net380
*665 net381
*666 net382
*667 net383
*668 net384
*669 net385
*670 net386
*671 net387
*672 net388
*673 net389
*674 net39
*675 net390
*676 net391
*677 net392
*678 net393
*679 net394
*680 net395
*681 net396
*682 net397
*683 net398
*684 net399
*685 net4
*686 net40
*687 net400
*688 net401
*689 net402
*690 net403
*691 net404
*692 net405
*693 net406
*694 net407
*695 net408
*696 net409
*697 net41
*698 net410
*699 net411
*700 net412
*701 net413
*702 net414
*703 net415
*704 net416
*705 net417
*706 net418
*707 net419
*708 net42
*709 net420
*710 net421
*711 net422
*712 net423
*713 net424
*714 net425
*715 net426
*716 net427
*717 net428
*718 net429
*719 net43
*720 net430
*721 net431
*722 net432
*723 net433
*724 net434
*725 net435
*726 net436
*727 net437
*728 net438
*729 net439
*730 net44
*731 net440
*732 net441
*733 net442
*734 net443
*735 net444
*736 net445
*737 net446
*738 net447
*739 net448
*740 net449
*741 net45
*742 net450
*743 net451
*744 net452
*745 net453
*746 net454
*747 net455
*748 net456
*749 net457
*750 net458
*751 net459
*752 net46
*753 net460
*754 net461
*755 net462
*756 net463
*757 net464
*758 net465
*759 net466
*760 net467
*761 net468
*762 net469
*763 net47
*764 net470
*765 net471
*766 net472
*767 net473
*768 net474
*769 net475
*770 net476
*771 net477
*772 net478
*773 net479
*774 net48
*775 net480
*776 net481
*777 net482
*778 net483
*779 net484
*780 net485
*781 net486
*782 net487
*783 net488
*784 net489
*785 net49
*786 net490
*787 net491
*788 net492
*789 net493
*790 net494
*791 net495
*792 net496
*793 net497
*794 net498
*795 net499
*796 net5
*797 net50
*798 net500
*799 net501
*800 net502
*801 net503
*802 net504
*803 net505
*804 net506
*805 net507
*806 net508
*807 net509
*808 net51
*809 net510
*810 net511
*811 net512
*812 net513
*813 net514
*814 net515
*815 net516
*816 net517
*817 net518
*818 net519
*819 net52
*820 net520
*821 net521
*822 net522
*823 net523
*824 net524
*825 net525
*826 net526
*827 net527
*828 net528
*829 net529
*830 net53
*831 net530
*832 net531
*833 net532
*834 net533
*835 net534
*836 net535
*837 net536
*838 net537
*839 net538
*840 net539
*841 net54
*842 net540
*843 net541
*844 net542
*845 net543
*846 net544
*847 net545
*848 net546
*849 net547
*850 net548
*851 net549
*852 net55
*853 net550
*854 net551
*855 net552
*856 net553
*857 net554
*858 net555
*859 net556
*860 net557
*861 net558
*862 net559
*863 net56
*864 net560
*865 net561
*866 net562
*867 net563
*868 net564
*869 net565
*870 net566
*871 net567
*872 net568
*873 net569
*874 net57
*875 net570
*876 net571
*877 net572
*878 net573
*879 net574
*880 net575
*881 net576
*882 net577
*883 net578
*884 net579
*885 net58
*886 net580
*887 net581
*888 net582
*889 net583
*890 net584
*891 net585
*892 net586
*893 net587
*894 net588
*895 net589
*896 net59
*897 net590
*898 net591
*899 net592
*900 net593
*901 net594
*902 net595
*903 net596
*904 net597
*905 net598
*906 net599
*907 net6
*908 net60
*909 net600
*910 net601
*911 net602
*912 net603
*913 net604
*914 net605
*915 net606
*916 net607
*917 net608
*918 net609
*919 net61
*920 net610
*921 net611
*922 net612
*923 net613
*924 net614
*925 net615
*926 net616
*927 net617
*928 net618
*929 net619
*930 net62
*931 net620
*932 net621
*933 net622
*934 net623
*935 net624
*936 net625
*937 net626
*938 net627
*939 net628
*940 net629
*941 net63
*942 net630
*943 net631
*944 net632
*945 net633
*946 net634
*947 net635
*948 net636
*949 net637
*950 net638
*951 net639
*952 net64
*953 net640
*954 net641
*955 net642
*956 net643
*957 net644
*958 net645
*959 net646
*960 net647
*961 net648
*962 net649
*963 net65
*964 net650
*965 net651
*966 net652
*967 net653
*968 net654
*969 net655
*970 net656
*971 net657
*972 net658
*973 net659
*974 net66
*975 net660
*976 net661
*977 net662
*978 net663
*979 net664
*980 net665
*981 net666
*982 net667
*983 net668
*984 net669
*985 net67
*986 net670
*987 net671
*988 net672
*989 net673
*990 net674
*991 net675
*992 net676
*993 net677
*994 net678
*995 net679
*996 net68
*997 net680
*998 net681
*999 net682
*1000 net683
*1001 net684
*1002 net685
*1003 net686
*1004 net687
*1005 net688
*1006 net689
*1007 net69
*1008 net690
*1009 net691
*1010 net692
*1011 net693
*1012 net694
*1013 net695
*1014 net696
*1015 net697
*1016 net698
*1017 net699
*1018 net7
*1019 net70
*1020 net700
*1021 net701
*1022 net702
*1023 net703
*1024 net704
*1025 net705
*1026 net706
*1027 net707
*1028 net708
*1029 net709
*1030 net71
*1031 net710
*1032 net711
*1033 net712
*1034 net713
*1035 net714
*1036 net715
*1037 net716
*1038 net717
*1039 net718
*1040 net719
*1041 net72
*1042 net720
*1043 net721
*1044 net722
*1045 net723
*1046 net724
*1047 net725
*1048 net726
*1049 net727
*1050 net728
*1051 net729
*1052 net73
*1053 net730
*1054 net731
*1055 net732
*1056 net733
*1057 net734
*1058 net735
*1059 net736
*1060 net737
*1061 net738
*1062 net739
*1063 net74
*1064 net740
*1065 net741
*1066 net742
*1067 net743
*1068 net744
*1069 net745
*1070 net746
*1071 net747
*1072 net748
*1073 net749
*1074 net75
*1075 net750
*1076 net751
*1077 net752
*1078 net753
*1079 net754
*1080 net755
*1081 net756
*1082 net757
*1083 net758
*1084 net759
*1085 net76
*1086 net760
*1087 net761
*1088 net762
*1089 net763
*1090 net764
*1091 net765
*1092 net766
*1093 net767
*1094 net768
*1095 net769
*1096 net77
*1097 net770
*1098 net771
*1099 net772
*1100 net773
*1101 net774
*1102 net775
*1103 net776
*1104 net777
*1105 net778
*1106 net779
*1107 net78
*1108 net780
*1109 net781
*1110 net782
*1111 net783
*1112 net784
*1113 net785
*1114 net786
*1115 net787
*1116 net788
*1117 net789
*1118 net79
*1119 net790
*1120 net791
*1121 net792
*1122 net793
*1123 net794
*1124 net795
*1125 net796
*1126 net797
*1127 net798
*1128 net799
*1129 net8
*1130 net80
*1131 net800
*1132 net801
*1133 net802
*1134 net803
*1135 net804
*1136 net805
*1137 net806
*1138 net807
*1139 net808
*1140 net809
*1141 net81
*1142 net810
*1143 net811
*1144 net812
*1145 net813
*1146 net814
*1147 net815
*1148 net816
*1149 net817
*1150 net818
*1151 net819
*1152 net82
*1153 net820
*1154 net821
*1155 net822
*1156 net823
*1157 net824
*1158 net825
*1159 net826
*1160 net827
*1161 net828
*1162 net829
*1163 net83
*1164 net830
*1165 net831
*1166 net832
*1167 net833
*1168 net834
*1169 net835
*1170 net836
*1171 net837
*1172 net838
*1173 net839
*1174 net84
*1175 net840
*1176 net841
*1177 net842
*1178 net843
*1179 net844
*1180 net845
*1181 net846
*1182 net847
*1183 net848
*1184 net849
*1185 net85
*1186 net850
*1187 net851
*1188 net852
*1189 net853
*1190 net854
*1191 net855
*1192 net856
*1193 net857
*1194 net858
*1195 net859
*1196 net86
*1197 net860
*1198 net861
*1199 net862
*1200 net863
*1201 net864
*1202 net865
*1203 net866
*1204 net867
*1205 net868
*1206 net869
*1207 net87
*1208 net870
*1209 net871
*1210 net872
*1211 net873
*1212 net874
*1213 net875
*1214 net876
*1215 net877
*1216 net878
*1217 net879
*1218 net88
*1219 net880
*1220 net881
*1221 net882
*1222 net883
*1223 net884
*1224 net885
*1225 net886
*1226 net887
*1227 net888
*1228 net889
*1229 net89
*1230 net890
*1231 net891
*1232 net892
*1233 net893
*1234 net894
*1235 net895
*1236 net896
*1237 net897
*1238 net898
*1239 net899
*1240 net9
*1241 net90
*1242 net900
*1243 net901
*1244 net902
*1245 net903
*1246 net904
*1247 net905
*1248 net906
*1249 net907
*1250 net908
*1251 net909
*1252 net91
*1253 net910
*1254 net911
*1255 net912
*1256 net913
*1257 net914
*1258 net915
*1259 net916
*1260 net917
*1261 net918
*1262 net919
*1263 net92
*1264 net920
*1265 net921
*1266 net922
*1267 net923
*1268 net924
*1269 net925
*1270 net926
*1271 net927
*1272 net928
*1273 net929
*1274 net93
*1275 net930
*1276 net931
*1277 net932
*1278 net933
*1279 net934
*1280 net935
*1281 net936
*1282 net937
*1283 net938
*1284 net939
*1285 net94
*1286 net940
*1287 net941
*1288 net942
*1289 net943
*1290 net944
*1291 net945
*1292 net946
*1293 net947
*1294 net948
*1295 net949
*1296 net95
*1297 net950
*1298 net951
*1299 net952
*1300 net953
*1301 net954
*1302 net955
*1303 net956
*1304 net957
*1305 net958
*1306 net959
*1307 net96
*1308 net960
*1309 net961
*1310 net962
*1311 net963
*1312 net964
*1313 net965
*1314 net966
*1315 net967
*1316 net968
*1317 net969
*1318 net97
*1319 net970
*1320 net971
*1321 net972
*1322 net973
*1323 net974
*1324 net975
*1325 net976
*1326 net977
*1327 net978
*1328 net979
*1329 net98
*1330 net980
*1331 net981
*1332 net982
*1333 net983
*1334 net984
*1335 net985
*1336 net986
*1337 net987
*1338 net988
*1339 net989
*1340 net99
*1341 net990
*1342 net991
*1343 net992
*1344 net993
*1345 net994
*1346 net995
*1347 net996
*1348 net997
*1349 net998
*1350 net999
*1351 ANTENNA_c103_S1
*1352 ANTENNA_c105_A2
*1353 ANTENNA_c105_B1_N
*1354 ANTENNA_c105_X
*1355 ANTENNA_c106_CLK
*1356 ANTENNA_c106_SCE
*1357 ANTENNA_c107_S1
*1358 ANTENNA_c108_A3
*1359 ANTENNA_c108_S1
*1360 ANTENNA_c109_A1
*1361 ANTENNA_c110_A
*1362 ANTENNA_c110_B
*1363 ANTENNA_c111_A
*1364 ANTENNA_c111_B
*1365 ANTENNA_c112_A2
*1366 ANTENNA_c112_A3
*1367 ANTENNA_c113_A
*1368 ANTENNA_c113_Y
*1369 ANTENNA_c114_A1
*1370 ANTENNA_c114_A3
*1371 ANTENNA_c116_CLK_N
*1372 ANTENNA_c116_RESET_B
*1373 ANTENNA_c117_A1
*1374 ANTENNA_c117_A2
*1375 ANTENNA_c117_B1_N
*1376 ANTENNA_c117_X
*1377 ANTENNA_c118_X
*1378 ANTENNA_c120_B
*1379 ANTENNA_c121_B
*1380 ANTENNA_c123_CLK
*1381 ANTENNA_c123_SCE
*1382 ANTENNA_c126_A0
*1383 ANTENNA_c126_S0
*1384 ANTENNA_c127_A2
*1385 ANTENNA_c127_B1_N
*1386 ANTENNA_c128_A0
*1387 ANTENNA_c128_A1
*1388 ANTENNA_c128_A2
*1389 ANTENNA_c128_S1
*1390 ANTENNA_c129_A3
*1391 ANTENNA_c130_A3
*1392 ANTENNA_c131_S0
*1393 ANTENNA_c132_A
*1394 ANTENNA_c132_X
*1395 ANTENNA_c133_X
*1396 ANTENNA_c134_A
*1397 ANTENNA_c135_A
*1398 ANTENNA_c135_B
*1399 ANTENNA_c135_Y
*1400 ANTENNA_c137_A
*1401 ANTENNA_c137_B
*1402 ANTENNA_c138_A
*1403 ANTENNA_c138_B
*1404 ANTENNA_c139_B
*1405 ANTENNA_c141_A
*1406 ANTENNA_c142_B
*1407 ANTENNA_c144_A
*1408 ANTENNA_c147_X
*1409 ANTENNA_c148_B
*1410 ANTENNA_c148_Y
*1411 ANTENNA_c149_B1_N
*1412 ANTENNA_c151_A0
*1413 ANTENNA_c151_A2
*1414 ANTENNA_c152_Y
*1415 ANTENNA_c153_S1
*1416 ANTENNA_c155_B
*1417 ANTENNA_c156_B
*1418 ANTENNA_c156_Y
*1419 ANTENNA_c157_B
*1420 ANTENNA_c157_Y
*1421 ANTENNA_c158_B
*1422 ANTENNA_c159_Y
*1423 ANTENNA_c161_B
*1424 ANTENNA_c161_Y
*1425 ANTENNA_c162_B
*1426 ANTENNA_c163_A0
*1427 ANTENNA_c163_A2
*1428 ANTENNA_c163_S0
*1429 ANTENNA_c163_S1
*1430 ANTENNA_c163_X
*1431 ANTENNA_c164_A
*1432 ANTENNA_c165_B
*1433 ANTENNA_c166_Y
*1434 ANTENNA_c167_A
*1435 ANTENNA_c167_B
*1436 ANTENNA_c168_A
*1437 ANTENNA_c170_A3
*1438 ANTENNA_c170_S0
*1439 ANTENNA_c170_X
*1440 ANTENNA_c171_A0
*1441 ANTENNA_c171_A1
*1442 ANTENNA_c171_S0
*1443 ANTENNA_c171_X
*1444 ANTENNA_c172_A0
*1445 ANTENNA_c172_A1
*1446 ANTENNA_c172_A2
*1447 ANTENNA_c172_A3
*1448 ANTENNA_c173_A
*1449 ANTENNA_c174_Y
*1450 ANTENNA_c175_A
*1451 ANTENNA_c176_A2
*1452 ANTENNA_c176_B1_N
*1453 ANTENNA_c177_A2
*1454 ANTENNA_c177_B1_N
*1455 ANTENNA_c178_B
*1456 ANTENNA_c178_Y
*1457 ANTENNA_c179_B
*1458 ANTENNA_c181_A
*1459 ANTENNA_c181_Y
*1460 ANTENNA_c183_A
*1461 ANTENNA_c183_B
*1462 ANTENNA_c184_B
*1463 ANTENNA_c185_A3
*1464 ANTENNA_c185_B1
*1465 ANTENNA_c186_B
*1466 ANTENNA_c187_X
*1467 ANTENNA_c188_B
*1468 ANTENNA_c189_B
*1469 ANTENNA_c191_X
*1470 ANTENNA_c192_B
*1471 ANTENNA_c192_Y
*1472 ANTENNA_c193_A2
*1473 ANTENNA_c194_RESET_B
*1474 ANTENNA_c194_SCD
*1475 ANTENNA_c194_SCE
*1476 ANTENNA_c195_A2
*1477 ANTENNA_c196_A3
*1478 ANTENNA_c196_B1
*1479 ANTENNA_c197_A2
*1480 ANTENNA_c197_A3
*1481 ANTENNA_c197_A4
*1482 ANTENNA_c197_B1
*1483 ANTENNA_c197_X
*1484 ANTENNA_c199_B1_N
*1485 ANTENNA_c199_X
*1486 ANTENNA_c200_A2
*1487 ANTENNA_c201_A3
*1488 ANTENNA_c201_A4
*1489 ANTENNA_c201_B1
*1490 ANTENNA_c202_A2
*1491 ANTENNA_c202_B1_N
*1492 ANTENNA_c203_A1
*1493 ANTENNA_c203_B1_N
*1494 ANTENNA_c206_X
*1495 ANTENNA_c207_A
*1496 ANTENNA_c207_Y
*1497 ANTENNA_c208_A2
*1498 ANTENNA_c209_X
*1499 ANTENNA_c211_A3
*1500 ANTENNA_c212_A3
*1501 ANTENNA_c212_B1
*1502 ANTENNA_c213_A2
*1503 ANTENNA_c214_A2
*1504 ANTENNA_c215_X
*1505 ANTENNA_c216_A3
*1506 ANTENNA_c216_S1
*1507 ANTENNA_c217_A2
*1508 ANTENNA_c217_B1_N
*1509 ANTENNA_c218_A2
*1510 ANTENNA_c219_A2
*1511 ANTENNA_c219_B1
*1512 ANTENNA_c220_A1
*1513 ANTENNA_c220_A2
*1514 ANTENNA_c220_B1_N
*1515 ANTENNA_c221_A1
*1516 ANTENNA_c221_A2
*1517 ANTENNA_c221_B1_N
*1518 ANTENNA_c222_A1
*1519 ANTENNA_c222_A2
*1520 ANTENNA_c222_B1_N
*1521 ANTENNA_c223_B1_N
*1522 ANTENNA_c225_B
*1523 ANTENNA_c226_B1
*1524 ANTENNA_c229_A2
*1525 ANTENNA_c230_A2
*1526 ANTENNA_c230_S1
*1527 ANTENNA_c231_CLK_N
*1528 ANTENNA_c231_RESET_B
*1529 ANTENNA_c231_SCD
*1530 ANTENNA_c231_SET_B
*1531 ANTENNA_c233_A3
*1532 ANTENNA_c233_A4
*1533 ANTENNA_c233_B1
*1534 ANTENNA_c234_A
*1535 ANTENNA_c236_CLK_N
*1536 ANTENNA_c236_D
*1537 ANTENNA_c236_SCD
*1538 ANTENNA_c237_A1
*1539 ANTENNA_c238_S0
*1540 ANTENNA_c238_S1
*1541 ANTENNA_c239_A3
*1542 ANTENNA_c240_A1
*1543 ANTENNA_c241_CLK
*1544 ANTENNA_c241_Q
*1545 ANTENNA_c241_Q_N
*1546 ANTENNA_c242_A1
*1547 ANTENNA_c242_B1_N
*1548 ANTENNA_c244_A2
*1549 ANTENNA_c248_CLK
*1550 ANTENNA_c248_D
*1551 ANTENNA_c249_CLK_N
*1552 ANTENNA_c249_SCD
*1553 ANTENNA_c250_CLK_N
*1554 ANTENNA_c250_Q
*1555 ANTENNA_c250_SET_B
*1556 ANTENNA_c251_CLK
*1557 ANTENNA_c251_SCD
*1558 ANTENNA_c252_X
*1559 ANTENNA_c253_A3
*1560 ANTENNA_c253_B1
*1561 ANTENNA_c254_A1
*1562 ANTENNA_c254_S0
*1563 ANTENNA_c255_A0
*1564 ANTENNA_c255_S1
*1565 ANTENNA_c256_A4
*1566 ANTENNA_c258_CLK
*1567 ANTENNA_c258_RESET_B
*1568 ANTENNA_c259_A1
*1569 ANTENNA_c25_A
*1570 ANTENNA_c25_B
*1571 ANTENNA_c260_S0
*1572 ANTENNA_c261_S0
*1573 ANTENNA_c261_S1
*1574 ANTENNA_c262_S0
*1575 ANTENNA_c263_CLK_N
*1576 ANTENNA_c264_A
*1577 ANTENNA_c266_A
*1578 ANTENNA_c266_X
*1579 ANTENNA_c267_B
*1580 ANTENNA_c26_A
*1581 ANTENNA_c26_B
*1582 ANTENNA_c270_X
*1583 ANTENNA_c273_B
*1584 ANTENNA_c275_A
*1585 ANTENNA_c275_B
*1586 ANTENNA_c275_Y
*1587 ANTENNA_c278_B
*1588 ANTENNA_c27_A
*1589 ANTENNA_c280_B
*1590 ANTENNA_c281_B
*1591 ANTENNA_c282_Y
*1592 ANTENNA_c283_B
*1593 ANTENNA_c283_Y
*1594 ANTENNA_c285_B
*1595 ANTENNA_c285_Y
*1596 ANTENNA_c28_B
*1597 ANTENNA_c28_Y
*1598 ANTENNA_c290_B1_N
*1599 ANTENNA_c291_Y
*1600 ANTENNA_c292_B
*1601 ANTENNA_c293_B
*1602 ANTENNA_c293_Y
*1603 ANTENNA_c294_Y
*1604 ANTENNA_c296_B
*1605 ANTENNA_c297_A
*1606 ANTENNA_c299_X
*1607 ANTENNA_c29_A1
*1608 ANTENNA_c29_A2
*1609 ANTENNA_c300_A4
*1610 ANTENNA_c300_B1
*1611 ANTENNA_c302_B
*1612 ANTENNA_c303_A2
*1613 ANTENNA_c303_A3
*1614 ANTENNA_c303_B1
*1615 ANTENNA_c304_A2
*1616 ANTENNA_c304_A4
*1617 ANTENNA_c304_B1
*1618 ANTENNA_c305_B1
*1619 ANTENNA_c306_A3
*1620 ANTENNA_c307_A1
*1621 ANTENNA_c307_A3
*1622 ANTENNA_c307_A4
*1623 ANTENNA_c307_B1
*1624 ANTENNA_c307_X
*1625 ANTENNA_c309_A
*1626 ANTENNA_c309_B
*1627 ANTENNA_c311_A
*1628 ANTENNA_c313_B
*1629 ANTENNA_c315_A1
*1630 ANTENNA_c315_A3
*1631 ANTENNA_c315_S0
*1632 ANTENNA_c315_S1
*1633 ANTENNA_c315_X
*1634 ANTENNA_c316_B
*1635 ANTENNA_c318_A1
*1636 ANTENNA_c318_B1_N
*1637 ANTENNA_c319_B
*1638 ANTENNA_c322_S1
*1639 ANTENNA_c325_A2
*1640 ANTENNA_c325_S0
*1641 ANTENNA_c326_S1
*1642 ANTENNA_c327_A2
*1643 ANTENNA_c327_S0
*1644 ANTENNA_c328_A3
*1645 ANTENNA_c328_S1
*1646 ANTENNA_c329_A2
*1647 ANTENNA_c329_A3
*1648 ANTENNA_c329_S1
*1649 ANTENNA_c331_B
*1650 ANTENNA_c331_Y
*1651 ANTENNA_c332_A
*1652 ANTENNA_c332_B
*1653 ANTENNA_c335_A
*1654 ANTENNA_c335_B
*1655 ANTENNA_c337_A1
*1656 ANTENNA_c337_A3
*1657 ANTENNA_c337_S0
*1658 ANTENNA_c337_S1
*1659 ANTENNA_c339_A3
*1660 ANTENNA_c339_S0
*1661 ANTENNA_c33_A
*1662 ANTENNA_c33_X
*1663 ANTENNA_c341_A3
*1664 ANTENNA_c341_A4
*1665 ANTENNA_c342_A1
*1666 ANTENNA_c342_S0
*1667 ANTENNA_c344_Y
*1668 ANTENNA_c346_B
*1669 ANTENNA_c348_A1
*1670 ANTENNA_c348_S0
*1671 ANTENNA_c349_A3
*1672 ANTENNA_c349_S0
*1673 ANTENNA_c349_S1
*1674 ANTENNA_c350_S0
*1675 ANTENNA_c350_S1
*1676 ANTENNA_c351_A0
*1677 ANTENNA_c351_S1
*1678 ANTENNA_c352_A1
*1679 ANTENNA_c353_A3
*1680 ANTENNA_c354_A2
*1681 ANTENNA_c354_A3
*1682 ANTENNA_c354_B1
*1683 ANTENNA_c355_A2
*1684 ANTENNA_c355_A3
*1685 ANTENNA_c355_B1
*1686 ANTENNA_c355_X
*1687 ANTENNA_c356_A2
*1688 ANTENNA_c356_A3
*1689 ANTENNA_c356_A4
*1690 ANTENNA_c356_B1
*1691 ANTENNA_c358_A1
*1692 ANTENNA_c358_A2
*1693 ANTENNA_c358_B1
*1694 ANTENNA_c359_A2
*1695 ANTENNA_c359_A3
*1696 ANTENNA_c35_B
*1697 ANTENNA_c35_Y
*1698 ANTENNA_c360_A1
*1699 ANTENNA_c360_A3
*1700 ANTENNA_c361_A1
*1701 ANTENNA_c361_A3
*1702 ANTENNA_c361_A4
*1703 ANTENNA_c361_X
*1704 ANTENNA_c362_A2
*1705 ANTENNA_c362_A4
*1706 ANTENNA_c362_B1
*1707 ANTENNA_c363_CLK
*1708 ANTENNA_c363_SCD
*1709 ANTENNA_c363_SCE
*1710 ANTENNA_c364_RESET_B
*1711 ANTENNA_c364_SCD
*1712 ANTENNA_c365_RESET_B
*1713 ANTENNA_c366_CLK_N
*1714 ANTENNA_c366_Q
*1715 ANTENNA_c366_Q_N
*1716 ANTENNA_c366_SCE
*1717 ANTENNA_c366_SET_B
*1718 ANTENNA_c367_A1
*1719 ANTENNA_c367_A3
*1720 ANTENNA_c367_S0
*1721 ANTENNA_c368_A1
*1722 ANTENNA_c368_A2
*1723 ANTENNA_c368_S0
*1724 ANTENNA_c369_CLK_N
*1725 ANTENNA_c369_D
*1726 ANTENNA_c369_SCD
*1727 ANTENNA_c369_SCE
*1728 ANTENNA_c369_SET_B
*1729 ANTENNA_c36_B1_N
*1730 ANTENNA_c370_A1
*1731 ANTENNA_c370_A3
*1732 ANTENNA_c371_A2
*1733 ANTENNA_c372_RESET_B
*1734 ANTENNA_c373_SCD
*1735 ANTENNA_c374_A4
*1736 ANTENNA_c374_B1
*1737 ANTENNA_c375_A1
*1738 ANTENNA_c375_X
*1739 ANTENNA_c376_CLK_N
*1740 ANTENNA_c376_SCD
*1741 ANTENNA_c376_SET_B
*1742 ANTENNA_c377_A4
*1743 ANTENNA_c377_B1
*1744 ANTENNA_c378_CLK
*1745 ANTENNA_c378_D
*1746 ANTENNA_c378_Q
*1747 ANTENNA_c378_SCD
*1748 ANTENNA_c378_SCE
*1749 ANTENNA_c379_A1
*1750 ANTENNA_c379_A2
*1751 ANTENNA_c379_A3
*1752 ANTENNA_c379_X
*1753 ANTENNA_c380_A0
*1754 ANTENNA_c380_A1
*1755 ANTENNA_c381_A1
*1756 ANTENNA_c381_A2
*1757 ANTENNA_c382_A3
*1758 ANTENNA_c383_CLK_N
*1759 ANTENNA_c383_SCD
*1760 ANTENNA_c383_SCE
*1761 ANTENNA_c384_CLK_N
*1762 ANTENNA_c384_SCD
*1763 ANTENNA_c384_SET_B
*1764 ANTENNA_c385_A3
*1765 ANTENNA_c385_A4
*1766 ANTENNA_c386_CLK
*1767 ANTENNA_c386_RESET_B
*1768 ANTENNA_c386_SCE
*1769 ANTENNA_c387_CLK_N
*1770 ANTENNA_c387_RESET_B
*1771 ANTENNA_c387_SCD
*1772 ANTENNA_c387_SCE
*1773 ANTENNA_c388_A3
*1774 ANTENNA_c388_S0
*1775 ANTENNA_c388_S1
*1776 ANTENNA_c389_A4
*1777 ANTENNA_c38_A1
*1778 ANTENNA_c38_A2
*1779 ANTENNA_c38_X
*1780 ANTENNA_c390_A3
*1781 ANTENNA_c390_B1
*1782 ANTENNA_c391_A0
*1783 ANTENNA_c391_A1
*1784 ANTENNA_c391_A3
*1785 ANTENNA_c392_A0
*1786 ANTENNA_c392_A3
*1787 ANTENNA_c392_S1
*1788 ANTENNA_c393_CLK_N
*1789 ANTENNA_c393_SCD
*1790 ANTENNA_c393_SCE
*1791 ANTENNA_c395_A2
*1792 ANTENNA_c395_S0
*1793 ANTENNA_c396_A
*1794 ANTENNA_c396_B
*1795 ANTENNA_c397_X
*1796 ANTENNA_c398_A
*1797 ANTENNA_c399_B
*1798 ANTENNA_c401_B
*1799 ANTENNA_c402_A
*1800 ANTENNA_c403_A
*1801 ANTENNA_c405_X
*1802 ANTENNA_c40_A1
*1803 ANTENNA_c40_A3
*1804 ANTENNA_c40_B1
*1805 ANTENNA_c410_A1
*1806 ANTENNA_c410_A3
*1807 ANTENNA_c410_B1
*1808 ANTENNA_c410_X
*1809 ANTENNA_c411_A2
*1810 ANTENNA_c411_X
*1811 ANTENNA_c413_A2
*1812 ANTENNA_c413_A3
*1813 ANTENNA_c414_B1_N
*1814 ANTENNA_c415_B1
*1815 ANTENNA_c415_X
*1816 ANTENNA_c416_A1
*1817 ANTENNA_c416_A3
*1818 ANTENNA_c417_A1
*1819 ANTENNA_c417_A2
*1820 ANTENNA_c417_S1
*1821 ANTENNA_c418_A
*1822 ANTENNA_c418_Y
*1823 ANTENNA_c419_B
*1824 ANTENNA_c41_A