*SPEF "ieee 1481-1999"
*DESIGN "netlist_0"
*DATE "21:11:11 Sunday August 04, 2024"
*VENDOR "The OpenROAD Project"
*PROGRAM "OpenROAD"
*VERSION "d423155d69de7f683a23f6916ead418a615ad4ad"
*DESIGN_FLOW "NAME_SCOPE LOCAL" "PIN_CAP NONE"
*DIVIDER /
*DELIMITER :
*BUS_DELIMITER []
*T_UNIT 1 NS
*C_UNIT 1 PF
*R_UNIT 1 OHM
*L_UNIT 1 HENRY

*NAME_MAP
*3 clk
*4 in0
*5 in1
*6 in10
*7 in11
*8 in12
*9 in13
*10 in14
*11 in15
*12 in16
*13 in17
*14 in18
*15 in19
*16 in2
*17 in20
*18 in21
*19 in22
*20 in23
*21 in24
*22 in25
*23 in26
*24 in27
*25 in28
*26 in29
*27 in3
*28 in30
*29 in31
*30 in32
*31 in33
*32 in34
*33 in35
*34 in36
*35 in37
*36 in38
*37 in39
*38 in4
*39 in40
*40 in41
*41 in42
*42 in43
*43 in44
*44 in45
*45 in46
*46 in47
*47 in48
*48 in49
*49 in5
*50 in50
*51 in51
*52 in52
*53 in53
*54 in54
*55 in55
*56 in56
*57 in57
*58 in58
*59 in59
*60 in6
*61 in60
*62 in61
*63 in7
*64 in8
*65 in9
*66 out0
*67 out1
*68 out10
*69 out11
*70 out12
*71 out13
*72 out14
*73 out15
*74 out16
*75 out17
*76 out18
*77 out19
*78 out2
*79 out20
*80 out21
*81 out22
*82 out23
*83 out24
*84 out25
*85 out26
*86 out27
*87 out28
*88 out29
*89 out3
*90 out30
*91 out31
*92 out32
*93 out33
*94 out34
*95 out35
*96 out36
*97 out37
*98 out38
*99 out39
*100 out4
*101 out40
*102 out41
*103 out42
*104 out43
*105 out44
*106 out45
*107 out46
*108 out47
*109 out48
*110 out49
*111 out5
*112 out50
*113 out51
*114 out52
*115 out53
*116 out54
*117 out55
*118 out56
*119 out57
*120 out58
*121 out59
*122 out6
*123 out60
*124 out61
*125 out7
*126 out8
*127 out9
*128 rst
*129 clknet_0_clk
*130 clknet_0_net145
*131 clknet_0_net153
*132 clknet_0_net171
*133 clknet_0_net177
*134 clknet_0_net179
*135 clknet_0_net181
*136 clknet_0_net182
*137 clknet_0_net184
*138 clknet_0_net185
*139 clknet_0_net188
*140 clknet_0_net191
*141 clknet_0_net238
*142 clknet_0_net245
*143 clknet_0_net246
*144 clknet_0_net250
*145 clknet_0_net251
*146 clknet_0_net253
*147 clknet_0_net257
*148 clknet_0_net273
*149 clknet_0_net275
*150 clknet_0_net282
*151 clknet_0_net300
*152 clknet_0_net302
*153 clknet_0_net303
*154 clknet_0_net330
*155 clknet_0_net331
*156 clknet_0_net332
*157 clknet_0_net369
*158 clknet_0_net386
*159 clknet_0_net396
*160 clknet_0_net397
*161 clknet_0_net401
*162 clknet_0_net403
*163 clknet_0_net423
*164 clknet_0_net425
*165 clknet_0_net433
*166 clknet_0_net461
*167 clknet_0_net462
*168 clknet_0_net465
*169 clknet_0_net469
*170 clknet_0_net471
*171 clknet_0_net474
*172 clknet_0_net475
*173 clknet_0_net48
*174 clknet_0_net483
*175 clknet_0_net49
*176 clknet_0_net490
*177 clknet_0_net493
*178 clknet_0_net498
*179 clknet_0_net499
*180 clknet_0_net50
*181 clknet_0_net506
*182 clknet_0_net508
*183 clknet_0_net510
*184 clknet_0_net515
*185 clknet_0_net517
*186 clknet_0_net52
*187 clknet_0_net522
*188 clknet_0_net54
*189 clknet_0_net542
*190 clknet_0_net552
*191 clknet_0_net56
*192 clknet_0_net560
*193 clknet_0_net562
*194 clknet_0_net568
*195 clknet_0_net57
*196 clknet_0_net585
*197 clknet_0_net591
*198 clknet_0_net592
*199 clknet_0_net595
*200 clknet_0_net60
*201 clknet_0_net604
*202 clknet_0_net606
*203 clknet_0_net617
*204 clknet_0_net62
*205 clknet_0_net623
*206 clknet_0_net67
*207 clknet_0_net705
*208 clknet_0_net706
*209 clknet_0_net742
*210 clknet_0_net743
*211 clknet_0_net744
*212 clknet_0_net760
*213 clknet_0_net761
*214 clknet_0_net762
*215 clknet_0_net778
*216 clknet_0_net779
*217 clknet_0_net780
*218 clknet_0_net797
*219 clknet_0_net798
*220 clknet_0_net799
*221 clknet_0_net815
*222 clknet_0_net833
*223 clknet_0_net834
*224 clknet_0_net835
*225 clknet_0_net852
*226 clknet_0_net853
*227 clknet_0_net854
*228 clknet_0_net922
*229 clknet_0_net924
*230 clknet_0_net927
*231 clknet_0_net934
*232 clknet_0_net937
*233 clknet_0_net938
*234 clknet_0_net945
*235 clknet_0_net946
*236 clknet_0_net947
*237 clknet_0_net952
*238 clknet_0_net954
*239 clknet_0_net957
*240 clknet_0_net959
*241 clknet_0_net965
*242 clknet_0_net971
*243 clknet_0_net972
*244 clknet_0_net973
*245 clknet_0_net974
*246 clknet_0_net977
*247 clknet_1_0__leaf_net145
*248 clknet_1_0__leaf_net153
*249 clknet_1_0__leaf_net171
*250 clknet_1_0__leaf_net177
*251 clknet_1_0__leaf_net179
*252 clknet_1_0__leaf_net181
*253 clknet_1_0__leaf_net182
*254 clknet_1_0__leaf_net184
*255 clknet_1_0__leaf_net185
*256 clknet_1_0__leaf_net188
*257 clknet_1_0__leaf_net191
*258 clknet_1_0__leaf_net238
*259 clknet_1_0__leaf_net245
*260 clknet_1_0__leaf_net246
*261 clknet_1_0__leaf_net250
*262 clknet_1_0__leaf_net251
*263 clknet_1_0__leaf_net253
*264 clknet_1_0__leaf_net257
*265 clknet_1_0__leaf_net273
*266 clknet_1_0__leaf_net275
*267 clknet_1_0__leaf_net282
*268 clknet_1_0__leaf_net300
*269 clknet_1_0__leaf_net302
*270 clknet_1_0__leaf_net303
*271 clknet_1_0__leaf_net330
*272 clknet_1_0__leaf_net331
*273 clknet_1_0__leaf_net332
*274 clknet_1_0__leaf_net369
*275 clknet_1_0__leaf_net386
*276 clknet_1_0__leaf_net396
*277 clknet_1_0__leaf_net397
*278 clknet_1_0__leaf_net401
*279 clknet_1_0__leaf_net403
*280 clknet_1_0__leaf_net423
*281 clknet_1_0__leaf_net425
*282 clknet_1_0__leaf_net433
*283 clknet_1_0__leaf_net461
*284 clknet_1_0__leaf_net462
*285 clknet_1_0__leaf_net465
*286 clknet_1_0__leaf_net469
*287 clknet_1_0__leaf_net471
*288 clknet_1_0__leaf_net474
*289 clknet_1_0__leaf_net475
*290 clknet_1_0__leaf_net48
*291 clknet_1_0__leaf_net483
*292 clknet_1_0__leaf_net49
*293 clknet_1_0__leaf_net490
*294 clknet_1_0__leaf_net493
*295 clknet_1_0__leaf_net498
*296 clknet_1_0__leaf_net499
*297 clknet_1_0__leaf_net50
*298 clknet_1_0__leaf_net506
*299 clknet_1_0__leaf_net508
*300 clknet_1_0__leaf_net510
*301 clknet_1_0__leaf_net515
*302 clknet_1_0__leaf_net517
*303 clknet_1_0__leaf_net52
*304 clknet_1_0__leaf_net522
*305 clknet_1_0__leaf_net54
*306 clknet_1_0__leaf_net542
*307 clknet_1_0__leaf_net552
*308 clknet_1_0__leaf_net56
*309 clknet_1_0__leaf_net560
*310 clknet_1_0__leaf_net562
*311 clknet_1_0__leaf_net568
*312 clknet_1_0__leaf_net57
*313 clknet_1_0__leaf_net585
*314 clknet_1_0__leaf_net591
*315 clknet_1_0__leaf_net592
*316 clknet_1_0__leaf_net595
*317 clknet_1_0__leaf_net60
*318 clknet_1_0__leaf_net604
*319 clknet_1_0__leaf_net606
*320 clknet_1_0__leaf_net617
*321 clknet_1_0__leaf_net62
*322 clknet_1_0__leaf_net623
*323 clknet_1_0__leaf_net67
*324 clknet_1_0__leaf_net705
*325 clknet_1_0__leaf_net706
*326 clknet_1_0__leaf_net742
*327 clknet_1_0__leaf_net743
*328 clknet_1_0__leaf_net744
*329 clknet_1_0__leaf_net760
*330 clknet_1_0__leaf_net761
*331 clknet_1_0__leaf_net762
*332 clknet_1_0__leaf_net778
*333 clknet_1_0__leaf_net779
*334 clknet_1_0__leaf_net780
*335 clknet_1_0__leaf_net797
*336 clknet_1_0__leaf_net798
*337 clknet_1_0__leaf_net799
*338 clknet_1_0__leaf_net815
*339 clknet_1_0__leaf_net833
*340 clknet_1_0__leaf_net834
*341 clknet_1_0__leaf_net835
*342 clknet_1_0__leaf_net852
*343 clknet_1_0__leaf_net853
*344 clknet_1_0__leaf_net854
*345 clknet_1_0__leaf_net922
*346 clknet_1_0__leaf_net924
*347 clknet_1_0__leaf_net927
*348 clknet_1_0__leaf_net934
*349 clknet_1_0__leaf_net937
*350 clknet_1_0__leaf_net938
*351 clknet_1_0__leaf_net945
*352 clknet_1_0__leaf_net946
*353 clknet_1_0__leaf_net947
*354 clknet_1_0__leaf_net952
*355 clknet_1_0__leaf_net954
*356 clknet_1_0__leaf_net957
*357 clknet_1_0__leaf_net959
*358 clknet_1_0__leaf_net965
*359 clknet_1_0__leaf_net971
*360 clknet_1_0__leaf_net972
*361 clknet_1_0__leaf_net973
*362 clknet_1_0__leaf_net974
*363 clknet_1_0__leaf_net977
*364 clknet_1_1__leaf_net145
*365 clknet_1_1__leaf_net153
*366 clknet_1_1__leaf_net171
*367 clknet_1_1__leaf_net177
*368 clknet_1_1__leaf_net179
*369 clknet_1_1__leaf_net181
*370 clknet_1_1__leaf_net182
*371 clknet_1_1__leaf_net184
*372 clknet_1_1__leaf_net185
*373 clknet_1_1__leaf_net188
*374 clknet_1_1__leaf_net191
*375 clknet_1_1__leaf_net238
*376 clknet_1_1__leaf_net245
*377 clknet_1_1__leaf_net246
*378 clknet_1_1__leaf_net250
*379 clknet_1_1__leaf_net251
*380 clknet_1_1__leaf_net253
*381 clknet_1_1__leaf_net257
*382 clknet_1_1__leaf_net273
*383 clknet_1_1__leaf_net275
*384 clknet_1_1__leaf_net282
*385 clknet_1_1__leaf_net300
*386 clknet_1_1__leaf_net302
*387 clknet_1_1__leaf_net303
*388 clknet_1_1__leaf_net330
*389 clknet_1_1__leaf_net331
*390 clknet_1_1__leaf_net332
*391 clknet_1_1__leaf_net369
*392 clknet_1_1__leaf_net386
*393 clknet_1_1__leaf_net396
*394 clknet_1_1__leaf_net397
*395 clknet_1_1__leaf_net401
*396 clknet_1_1__leaf_net403
*397 clknet_1_1__leaf_net423
*398 clknet_1_1__leaf_net425
*399 clknet_1_1__leaf_net433
*400 clknet_1_1__leaf_net461
*401 clknet_1_1__leaf_net462
*402 clknet_1_1__leaf_net465
*403 clknet_1_1__leaf_net469
*404 clknet_1_1__leaf_net471
*405 clknet_1_1__leaf_net474
*406 clknet_1_1__leaf_net475
*407 clknet_1_1__leaf_net48
*408 clknet_1_1__leaf_net483
*409 clknet_1_1__leaf_net49
*410 clknet_1_1__leaf_net490
*411 clknet_1_1__leaf_net493
*412 clknet_1_1__leaf_net498
*413 clknet_1_1__leaf_net499
*414 clknet_1_1__leaf_net50
*415 clknet_1_1__leaf_net506
*416 clknet_1_1__leaf_net508
*417 clknet_1_1__leaf_net510
*418 clknet_1_1__leaf_net515
*419 clknet_1_1__leaf_net517
*420 clknet_1_1__leaf_net52
*421 clknet_1_1__leaf_net522
*422 clknet_1_1__leaf_net54
*423 clknet_1_1__leaf_net542
*424 clknet_1_1__leaf_net552
*425 clknet_1_1__leaf_net56
*426 clknet_1_1__leaf_net560
*427 clknet_1_1__leaf_net562
*428 clknet_1_1__leaf_net568
*429 clknet_1_1__leaf_net57
*430 clknet_1_1__leaf_net585
*431 clknet_1_1__leaf_net591
*432 clknet_1_1__leaf_net592
*433 clknet_1_1__leaf_net595
*434 clknet_1_1__leaf_net60
*435 clknet_1_1__leaf_net604
*436 clknet_1_1__leaf_net606
*437 clknet_1_1__leaf_net617
*438 clknet_1_1__leaf_net62
*439 clknet_1_1__leaf_net623
*440 clknet_1_1__leaf_net67
*441 clknet_1_1__leaf_net705
*442 clknet_1_1__leaf_net706
*443 clknet_1_1__leaf_net742
*444 clknet_1_1__leaf_net743
*445 clknet_1_1__leaf_net744
*446 clknet_1_1__leaf_net760
*447 clknet_1_1__leaf_net761
*448 clknet_1_1__leaf_net762
*449 clknet_1_1__leaf_net778
*450 clknet_1_1__leaf_net779
*451 clknet_1_1__leaf_net780
*452 clknet_1_1__leaf_net797
*453 clknet_1_1__leaf_net798
*454 clknet_1_1__leaf_net799
*455 clknet_1_1__leaf_net815
*456 clknet_1_1__leaf_net833
*457 clknet_1_1__leaf_net834
*458 clknet_1_1__leaf_net835
*459 clknet_1_1__leaf_net852
*460 clknet_1_1__leaf_net853
*461 clknet_1_1__leaf_net854
*462 clknet_1_1__leaf_net922
*463 clknet_1_1__leaf_net924
*464 clknet_1_1__leaf_net927
*465 clknet_1_1__leaf_net934
*466 clknet_1_1__leaf_net937
*467 clknet_1_1__leaf_net938
*468 clknet_1_1__leaf_net945
*469 clknet_1_1__leaf_net946
*470 clknet_1_1__leaf_net947
*471 clknet_1_1__leaf_net952
*472 clknet_1_1__leaf_net954
*473 clknet_1_1__leaf_net957
*474 clknet_1_1__leaf_net959
*475 clknet_1_1__leaf_net965
*476 clknet_1_1__leaf_net971
*477 clknet_1_1__leaf_net972
*478 clknet_1_1__leaf_net973
*479 clknet_1_1__leaf_net974
*480 clknet_1_1__leaf_net977
*481 clknet_4_0_0_clk
*482 clknet_4_10_0_clk
*483 clknet_4_11_0_clk
*484 clknet_4_12_0_clk
*485 clknet_4_13_0_clk
*486 clknet_4_14_0_clk
*487 clknet_4_15_0_clk
*488 clknet_4_1_0_clk
*489 clknet_4_2_0_clk
*490 clknet_4_3_0_clk
*491 clknet_4_4_0_clk
*492 clknet_4_5_0_clk
*493 clknet_4_6_0_clk
*494 clknet_4_7_0_clk
*495 clknet_4_8_0_clk
*496 clknet_4_9_0_clk
*497 net0
*498 net1
*499 net10
*500 net100
*501 net1000
*502 net1001
*503 net1002
*504 net1003
*505 net1004
*506 net1005
*507 net1006
*508 net1007
*509 net1008
*510 net1009
*511 net101
*512 net1010
*513 net1011
*514 net1012
*515 net1013
*516 net1014
*517 net1015
*518 net1016
*519 net1017
*520 net1018
*521 net1019
*522 net102
*523 net1020
*524 net1021
*525 net1022
*526 net1023
*527 net1024
*528 net1025
*529 net1026
*530 net1027
*531 net1028
*532 net1029
*533 net103
*534 net1030
*535 net1031
*536 net1032
*537 net1033
*538 net1034
*539 net1035
*540 net1036
*541 net1037
*542 net1038
*543 net1039
*544 net104
*545 net1040
*546 net1041
*547 net1042
*548 net1043
*549 net1044
*550 net1045
*551 net1046
*552 net1047
*553 net1048
*554 net1049
*555 net105
*556 net1050
*557 net1051
*558 net1052
*559 net1053
*560 net1054
*561 net1055
*562 net1056
*563 net1057
*564 net1058
*565 net1059
*566 net106
*567 net1060
*568 net1061
*569 net1062
*570 net1063
*571 net1064
*572 net1065
*573 net1066
*574 net1067
*575 net1068
*576 net1069
*577 net107
*578 net1070
*579 net1071
*580 net1072
*581 net1073
*582 net1074
*583 net1075
*584 net1076
*585 net1077
*586 net1078
*587 net1079
*588 net108
*589 net1080
*590 net1081
*591 net1082
*592 net1083
*593 net1084
*594 net1085
*595 net1086
*596 net1087
*597 net1088
*598 net1089
*599 net109
*600 net1090
*601 net1091
*602 net1092
*603 net1093
*604 net1094
*605 net1095
*606 net1096
*607 net1097
*608 net1098
*609 net1099
*610 net11
*611 net110
*612 net1100
*613 net1101
*614 net1102
*615 net1103
*616 net1104
*617 net1105
*618 net1106
*619 net1107
*620 net1108
*621 net1109
*622 net111
*623 net1110
*624 net1111
*625 net1112
*626 net1113
*627 net1114
*628 net1115
*629 net1116
*630 net1117
*631 net1118
*632 net112
*633 net1123
*634 net113
*635 net114
*636 net115
*637 net116
*638 net117
*639 net118
*640 net119
*641 net12
*642 net120
*643 net121
*644 net122
*645 net123
*646 net124
*647 net125
*648 net126
*649 net127
*650 net128
*651 net129
*652 net13
*653 net130
*654 net131
*655 net132
*656 net133
*657 net134
*658 net135
*659 net136
*660 net137
*661 net138
*662 net139
*663 net14
*664 net140
*665 net141
*666 net142
*667 net143
*668 net144
*669 net145
*670 net146
*671 net147
*672 net148
*673 net149
*674 net15
*675 net150
*676 net151
*677 net152
*678 net153
*679 net154
*680 net155
*681 net156
*682 net157
*683 net158
*684 net159
*685 net16
*686 net160
*687 net161
*688 net162
*689 net163
*690 net164
*691 net165
*692 net166
*693 net167
*694 net168
*695 net169
*696 net17
*697 net170
*698 net171
*699 net172
*700 net173
*701 net174
*702 net175
*703 net176
*704 net177
*705 net178
*706 net179
*707 net18
*708 net180
*709 net181
*710 net182
*711 net183
*712 net184
*713 net185
*714 net186
*715 net187
*716 net188
*717 net189
*718 net19
*719 net190
*720 net191
*721 net192
*722 net193
*723 net194
*724 net195
*725 net196
*726 net197
*727 net198
*728 net199
*729 net2
*730 net20
*731 net200
*732 net201
*733 net202
*734 net203
*735 net204
*736 net205
*737 net206
*738 net207
*739 net208
*740 net209
*741 net21
*742 net210
*743 net211
*744 net212
*745 net213
*746 net214
*747 net215
*748 net216
*749 net217
*750 net218
*751 net219
*752 net22
*753 net220
*754 net221
*755 net222
*756 net223
*757 net224
*758 net225
*759 net226
*760 net227
*761 net228
*762 net229
*763 net23
*764 net230
*765 net231
*766 net232
*767 net233
*768 net234
*769 net235
*770 net236
*771 net237
*772 net238
*773 net239
*774 net24
*775 net240
*776 net241
*777 net242
*778 net243
*779 net244
*780 net245
*781 net246
*782 net247
*783 net248
*784 net249
*785 net25
*786 net250
*787 net251
*788 net252
*789 net253
*790 net254
*791 net255
*792 net256
*793 net257
*794 net258
*795 net259
*796 net26
*797 net260
*798 net261
*799 net262
*800 net263
*801 net264
*802 net265
*803 net266
*804 net267
*805 net268
*806 net269
*807 net27
*808 net270
*809 net271
*810 net272
*811 net273
*812 net274
*813 net275
*814 net276
*815 net277
*816 net278
*817 net279
*818 net28
*819 net280
*820 net281
*821 net282
*822 net283
*823 net284
*824 net285
*825 net286
*826 net287
*827 net288
*828 net289
*829 net29
*830 net290
*831 net291
*832 net292
*833 net293
*834 net294
*835 net295
*836 net296
*837 net297
*838 net298
*839 net299
*840 net3
*841 net30
*842 net300
*843 net301
*844 net302
*845 net303
*846 net304
*847 net305
*848 net306
*849 net307
*850 net308
*851 net309
*852 net31
*853 net310
*854 net311
*855 net312
*856 net313
*857 net314
*858 net315
*859 net316
*860 net317
*861 net318
*862 net319
*863 net32
*864 net320
*865 net321
*866 net322
*867 net323
*868 net324
*869 net325
*870 net326
*871 net327
*872 net328
*873 net329
*874 net33
*875 net330
*876 net331
*877 net332
*878 net333
*879 net334
*880 net335
*881 net336
*882 net337
*883 net338
*884 net339
*885 net34
*886 net340
*887 net341
*888 net342
*889 net343
*890 net344
*891 net345
*892 net346
*893 net347
*894 net348
*895 net349
*896 net35
*897 net350
*898 net351
*899 net352
*900 net353
*901 net354
*902 net355
*903 net356
*904 net357
*905 net358
*906 net359
*907 net36
*908 net360
*909 net361
*910 net362
*911 net363
*912 net364
*913 net365
*914 net366
*915 net367
*916 net368
*917 net369
*918 net37
*919 net370
*920 net371
*921 net372
*922 net373
*923 net374
*924 net375
*925 net376
*926 net377
*927 net378
*928 net379
*929 net38
*930 net380
*931 net381
*932 net382
*933 net383
*934 net384
*935 net385
*936 net386
*937 net387
*938 net388
*939 net389
*940 net39
*941 net390
*942 net391
*943 net392
*944 net393
*945 net394
*946 net395
*947 net396
*948 net397
*949 net398
*950 net399
*951 net4
*952 net40
*953 net400
*954 net401
*955 net402
*956 net403
*957 net404
*958 net405
*959 net406
*960 net407
*961 net408
*962 net409
*963 net41
*964 net410
*965 net411
*966 net412
*967 net413
*968 net414
*969 net415
*970 net416
*971 net417
*972 net418
*973 net419
*974 net42
*975 net420
*976 net421
*977 net422
*978 net423
*979 net424
*980 net425
*981 net426
*982 net427
*983 net428
*984 net429
*985 net43
*986 net430
*987 net431
*988 net432
*989 net433
*990 net434
*991 net435
*992 net436
*993 net437
*994 net438
*995 net439
*996 net44
*997 net440
*998 net441
*999 net442
*1000 net443
*1001 net444
*1002 net445
*1003 net446
*1004 net447
*1005 net448
*1006 net449
*1007 net45
*1008 net450
*1009 net451
*1010 net452
*1011 net453
*1012 net454
*1013 net455
*1014 net456
*1015 net457
*1016 net458
*1017 net459
*1018 net46
*1019 net460
*1020 net461
*1021 net462
*1022 net463
*1023 net464
*1024 net465
*1025 net466
*1026 net467
*1027 net468
*1028 net469
*1029 net47
*1030 net470
*1031 net471
*1032 net472
*1033 net473
*1034 net474
*1035 net475
*1036 net476
*1037 net477
*1038 net478
*1039 net479
*1040 net48
*1041 net480
*1042 net481
*1043 net482
*1044 net483
*1045 net484
*1046 net485
*1047 net486
*1048 net487
*1049 net488
*1050 net489
*1051 net49
*1052 net490
*1053 net491
*1054 net492
*1055 net493
*1056 net494
*1057 net495
*1058 net496
*1059 net497
*1060 net498
*1061 net499
*1062 net5
*1063 net50
*1064 net500
*1065 net501
*1066 net502
*1067 net503
*1068 net504
*1069 net505
*1070 net506
*1071 net507
*1072 net508
*1073 net509
*1074 net51
*1075 net510
*1076 net511
*1077 net512
*1078 net513
*1079 net514
*1080 net515
*1081 net516
*1082 net517
*1083 net518
*1084 net519
*1085 net52
*1086 net520
*1087 net521
*1088 net522
*1089 net523
*1090 net524
*1091 net525
*1092 net526
*1093 net527
*1094 net528
*1095 net529
*1096 net53
*1097 net530
*1098 net531
*1099 net532
*1100 net533
*1101 net534
*1102 net535
*1103 net536
*1104 net537
*1105 net538
*1106 net539
*1107 net54
*1108 net540
*1109 net541
*1110 net542
*1111 net543
*1112 net544
*1113 net545
*1114 net546
*1115 net547
*1116 net548
*1117 net549
*1118 net55
*1119 net550
*1120 net551
*1121 net552
*1122 net553
*1123 net554
*1124 net555
*1125 net556
*1126 net557
*1127 net558
*1128 net559
*1129 net56
*1130 net560
*1131 net561
*1132 net562
*1133 net563
*1134 net564
*1135 net565
*1136 net566
*1137 net567
*1138 net568
*1139 net569
*1140 net57
*1141 net570
*1142 net571
*1143 net572
*1144 net573
*1145 net574
*1146 net575
*1147 net576
*1148 net577
*1149 net578
*1150 net579
*1151 net58
*1152 net580
*1153 net581
*1154 net582
*1155 net583
*1156 net584
*1157 net585
*1158 net586
*1159 net587
*1160 net588
*1161 net589
*1162 net59
*1163 net590
*1164 net591
*1165 net592
*1166 net593
*1167 net594
*1168 net595
*1169 net596
*1170 net597
*1171 net598
*1172 net599
*1173 net6
*1174 net60
*1175 net600
*1176 net601
*1177 net602
*1178 net603
*1179 net604
*1180 net605
*1181 net606
*1182 net607
*1183 net608
*1184 net609
*1185 net61
*1186 net610
*1187 net611
*1188 net612
*1189 net613
*1190 net614
*1191 net615
*1192 net616
*1193 net617
*1194 net618
*1195 net619
*1196 net62
*1197 net620
*1198 net621
*1199 net622
*1200 net623
*1201 net624
*1202 net625
*1203 net626
*1204 net627
*1205 net628
*1206 net629
*1207 net63
*1208 net630
*1209 net631
*1210 net632
*1211 net633
*1212 net634
*1213 net635
*1214 net636
*1215 net637
*1216 net638
*1217 net639
*1218 net64
*1219 net640
*1220 net641
*1221 net642
*1222 net643
*1223 net644
*1224 net645
*1225 net646
*1226 net647
*1227 net648
*1228 net649
*1229 net65
*1230 net650
*1231 net651
*1232 net652
*1233 net653
*1234 net654
*1235 net655
*1236 net656
*1237 net657
*1238 net658
*1239 net659
*1240 net66
*1241 net660
*1242 net661
*1243 net662
*1244 net663
*1245 net664
*1246 net665
*1247 net666
*1248 net667
*1249 net668
*1250 net669
*1251 net67
*1252 net670
*1253 net671
*1254 net672
*1255 net673
*1256 net674
*1257 net675
*1258 net676
*1259 net677
*1260 net678
*1261 net679
*1262 net68
*1263 net680
*1264 net681
*1265 net682
*1266 net683
*1267 net684
*1268 net685
*1269 net686
*1270 net687
*1271 net688
*1272 net689
*1273 net69
*1274 net690
*1275 net691
*1276 net692
*1277 net693
*1278 net694
*1279 net695
*1280 net696
*1281 net697
*1282 net698
*1283 net699
*1284 net7
*1285 net70
*1286 net700
*1287 net701
*1288 net702
*1289 net703
*1290 net704
*1291 net705
*1292 net706
*1293 net707
*1294 net708
*1295 net709
*1296 net71
*1297 net710
*1298 net711
*1299 net712
*1300 net713
*1301 net714
*1302 net715
*1303 net716
*1304 net717
*1305 net718
*1306 net719
*1307 net72
*1308 net720
*1309 net721
*1310 net722
*1311 net723
*1312 net724
*1313 net725
*1314 net726
*1315 net727
*1316 net728
*1317 net729
*1318 net73
*1319 net730
*1320 net731
*1321 net732
*1322 net733
*1323 net734
*1324 net735
*1325 net736
*1326 net737
*1327 net738
*1328 net739
*1329 net74
*1330 net740
*1331 net741
*1332 net742
*1333 net743
*1334 net744
*1335 net745
*1336 net746
*1337 net747
*1338 net748
*1339 net749
*1340 net75
*1341 net750
*1342 net751
*1343 net752
*1344 net753
*1345 net754
*1346 net755
*1347 net756
*1348 net757
*1349 net758
*1350 net759
*1351 net76
*1352 net760
*1353 net761
*1354 net762
*1355 net763
*1356 net764
*1357 net765
*1358 net766
*1359 net767
*1360 net768
*1361 net769
*1362 net77
*1363 net770
*1364 net771
*1365 net772
*1366 net773
*1367 net774
*1368 net775
*1369 net776
*1370 net777
*1371 net778
*1372 net779
*1373 net78
*1374 net780
*1375 net781
*1376 net782
*1377 net783
*1378 net784
*1379 net785
*1380 net786
*1381 net787
*1382 net788
*1383 net789
*1384 net79
*1385 net790
*1386 net791
*1387 net792
*1388 net793
*1389 net794
*1390 net795
*1391 net796
*1392 net797
*1393 net798
*1394 net799
*1395 net8
*1396 net80
*1397 net800
*1398 net801
*1399 net802
*1400 net803
*1401 net804
*1402 net805
*1403 net806
*1404 net807
*1405 net808
*1406 net809
*1407 net81
*1408 net810
*1409 net811
*1410 net812
*1411 net813
*1412 net814
*1413 net815
*1414 net816
*1415 net817
*1416 net818
*1417 net819
*1418 net82
*1419 net820
*1420 net821
*1421 net822
*1422 net823
*1423 net824
*1424 net825
*1425 net826
*1426 net827
*1427 net828
*1428 net829
*1429 net83
*1430 net830
*1431 net831
*1432 net832
*1433 net833
*1434 net834
*1435 net835
*1436 net836
*1437 net837
*1438 net838
*1439 net839
*1440 net84
*1441 net840
*1442 net841
*1443 net842
*1444 net843
*1445 net844
*1446 net845
*1447 net846
*1448 net847
*1449 net848
*1450 net849
*1451 net85
*1452 net850
*1453 net851
*1454 net852
*1455 net853
*1456 net854
*1457 net855
*1458 net856
*1459 net857
*1460 net858
*1461 net859
*1462 net86
*1463 net860
*1464 net861
*1465 net862
*1466 net863
*1467 net864
*1468 net865
*1469 net866
*1470 net867
*1471 net868
*1472 net869
*1473 net87
*1474 net870
*1475 net871
*1476 net872
*1477 net873
*1478 net874
*1479 net875
*1480 net876
*1481 net877
*1482 net878
*1483 net879
*1484 net88
*1485 net880
*1486 net881
*1487 net882
*1488 net883
*1489 net884
*1490 net885
*1491 net886
*1492 net887
*1493 net888
*1494 net889
*1495 net89
*1496 net890
*1497 net891
*1498 net892
*1499 net893
*1500 net894
*1501 net895
*1502 net896
*1503 net897
*1504 net898
*1505 net899
*1506 net9
*1507 net90
*1508 net900
*1509 net901
*1510 net902
*1511 net903
*1512 net904
*1513 net905
*1514 net906
*1515 net907
*1516 net908
*1517 net909
*1518 net91
*1519 net910
*1520 net911
*1521 net912
*1522 net913
*1523 net914
*1524 net915
*1525 net916
*1526 net917
*1527 net918
*1528 net919
*1529 net92
*1530 net920
*1531 net921
*1532 net922
*1533 net923
*1534 net924
*1535 net925
*1536 net926
*1537 net927
*1538 net928
*1539 net929
*1540 net93
*1541 net930
*1542 net931
*1543 net932
*1544 net933
*1545 net934
*1546 net935
*1547 net936
*1548 net937
*1549 net938
*1550 net939
*1551 net94
*1552 net940
*1553 net941
*1554 net942
*1555 net943
*1556 net944
*1557 net945
*1558 net946
*1559 net947
*1560 net948
*1561 net949
*1562 net95
*1563 net950
*1564 net951
*1565 net952
*1566 net953
*1567 net954
*1568 net955
*1569 net956
*1570 net957
*1571 net958
*1572 net959
*1573 net96
*1574 net960
*1575 net961
*1576 net962
*1577 net963
*1578 net964
*1579 net965
*1580 net966
*1581 net967
*1582 net968
*1583 net969
*1584 net97
*1585 net970
*1586 net971
*1587 net972
*1588 net973
*1589 net974
*1590 net975
*1591 net976
*1592 net977
*1593 net978
*1594 net979
*1595 net98
*1596 net980
*1597 net981
*1598 net982
*1599 net983
*1600 net984
*1601 net985
*1602 net986
*1603 net987
*1604 net988
*1605 net989
*1606 net99
*1607 net990
*1608 net991
*1609 net992
*1610 net993
*1611 net994
*1612 net995
*1613 net996
*1614 net997
*1615 net998
*1616 net999
*1617 ANTENNA_1
*1618 ANTENNA_2
*1619 ANTENNA_c100_D1
*1620 ANTENNA_c101_C
*1621 ANTENNA_c102_CLK_N
*1622 ANTENNA_c102_Q_N
*1623 ANTENNA_c102_SCE
*1624 ANTENNA_c102_SET_B
*1625 ANTENNA_c103_D1
*1626 ANTENNA_c104_C1
*1627 ANTENNA_c105_A1
*1628 ANTENNA_c105_A3
*1629 ANTENNA_c105_S1
*1630 ANTENNA_c106_CLK_N
*1631 ANTENNA_c107_C1
*1632 ANTENNA_c107_X
*1633 ANTENNA_c108_A2
*1634 ANTENNA_c108_S1
*1635 ANTENNA_c108_X
*1636 ANTENNA_c109_A1
*1637 ANTENNA_c109_A2
*1638 ANTENNA_c109_S0
*1639 ANTENNA_c109_S1
*1640 ANTENNA_c112_C
*1641 ANTENNA_c113_CLK_N
*1642 ANTENNA_c113_Q
*1643 ANTENNA_c113_RESET_B
*1644 ANTENNA_c113_SET_B
*1645 ANTENNA_c114_C
*1646 ANTENNA_c115_A
*1647 ANTENNA_c116_B
*1648 ANTENNA_c117_A1
*1649 ANTENNA_c117_A2
*1650 ANTENNA_c117_A3
*1651 ANTENNA_c118_A
*1652 ANTENNA_c118_B
*1653 ANTENNA_c118_D_N
*1654 ANTENNA_c119_A1
*1655 ANTENNA_c119_A2
*1656 ANTENNA_c119_B1
*1657 ANTENNA_c120_B1
*1658 ANTENNA_c120_C1
*1659 ANTENNA_c120_D1
*1660 ANTENNA_c121_B
*1661 ANTENNA_c121_C
*1662 ANTENNA_c122_B1
*1663 ANTENNA_c123_B
*1664 ANTENNA_c123_C
*1665 ANTENNA_c124_S1
*1666 ANTENNA_c125_A2
*1667 ANTENNA_c125_C1
*1668 ANTENNA_c126_B
*1669 ANTENNA_c126_C_N
*1670 ANTENNA_c126_D_N
*1671 ANTENNA_c127_S1
*1672 ANTENNA_c128_D1
*1673 ANTENNA_c129_CLK
*1674 ANTENNA_c129_SCE
*1675 ANTENNA_c129_SET_B
*1676 ANTENNA_c130_C_N
*1677 ANTENNA_c131_A1
*1678 ANTENNA_c131_S1
*1679 ANTENNA_c132_X
*1680 ANTENNA_c133_X
*1681 ANTENNA_c134_C1
*1682 ANTENNA_c134_X
*1683 ANTENNA_c136_A2
*1684 ANTENNA_c138_B
*1685 ANTENNA_c138_X
*1686 ANTENNA_c139_A1
*1687 ANTENNA_c140_B
*1688 ANTENNA_c140_X
*1689 ANTENNA_c141_A2
*1690 ANTENNA_c141_A3
*1691 ANTENNA_c141_S0
*1692 ANTENNA_c141_X
*1693 ANTENNA_c142_A1
*1694 ANTENNA_c142_A2
*1695 ANTENNA_c142_X
*1696 ANTENNA_c143_A2
*1697 ANTENNA_c143_C1
*1698 ANTENNA_c144_D1
*1699 ANTENNA_c144_X
*1700 ANTENNA_c145_B1
*1701 ANTENNA_c145_X
*1702 ANTENNA_c146_D1
*1703 ANTENNA_c147_C1
*1704 ANTENNA_c147_D1
*1705 ANTENNA_c147_X
*1706 ANTENNA_c148_B1
*1707 ANTENNA_c149_A0
*1708 ANTENNA_c149_A1
*1709 ANTENNA_c149_S1
*1710 ANTENNA_c149_X
*1711 ANTENNA_c150_D1
*1712 ANTENNA_c152_A0
*1713 ANTENNA_c152_A2
*1714 ANTENNA_c152_S1
*1715 ANTENNA_c152_X
*1716 ANTENNA_c153_A0
*1717 ANTENNA_c153_A3
*1718 ANTENNA_c153_S0
*1719 ANTENNA_c153_X
*1720 ANTENNA_c154_B1
*1721 ANTENNA_c154_C1
*1722 ANTENNA_c154_D1
*1723 ANTENNA_c154_X
*1724 ANTENNA_c155_B
*1725 ANTENNA_c155_C_N
*1726 ANTENNA_c156_B1
*1727 ANTENNA_c156_C1
*1728 ANTENNA_c156_X
*1729 ANTENNA_c157_B
*1730 ANTENNA_c157_C_N
*1731 ANTENNA_c157_D_N
*1732 ANTENNA_c158_A2
*1733 ANTENNA_c158_S1
*1734 ANTENNA_c159_A2
*1735 ANTENNA_c159_S0
*1736 ANTENNA_c160_A2
*1737 ANTENNA_c160_B1
*1738 ANTENNA_c160_D1
*1739 ANTENNA_c161_B
*1740 ANTENNA_c161_C_N
*1741 ANTENNA_c161_D_N
*1742 ANTENNA_c161_X
*1743 ANTENNA_c162_A
*1744 ANTENNA_c162_B
*1745 ANTENNA_c162_C_N
*1746 ANTENNA_c162_X
*1747 ANTENNA_c163_A1
*1748 ANTENNA_c163_A2
*1749 ANTENNA_c163_B1
*1750 ANTENNA_c163_C1
*1751 ANTENNA_c163_D1
*1752 ANTENNA_c164_B1
*1753 ANTENNA_c164_D1
*1754 ANTENNA_c166_A1
*1755 ANTENNA_c166_A2
*1756 ANTENNA_c166_A3
*1757 ANTENNA_c167_A3
*1758 ANTENNA_c167_S1
*1759 ANTENNA_c168_C1
*1760 ANTENNA_c168_X
*1761 ANTENNA_c169_A2
*1762 ANTENNA_c169_A3
*1763 ANTENNA_c169_S0
*1764 ANTENNA_c170_X
*1765 ANTENNA_c171_A1
*1766 ANTENNA_c171_A2
*1767 ANTENNA_c171_B1
*1768 ANTENNA_c172_A3
*1769 ANTENNA_c173_S1
*1770 ANTENNA_c174_A0
*1771 ANTENNA_c174_A2
*1772 ANTENNA_c174_S0
*1773 ANTENNA_c174_S1
*1774 ANTENNA_c175_S0
*1775 ANTENNA_c176_A
*1776 ANTENNA_c176_C
*1777 ANTENNA_c176_X
*1778 ANTENNA_c177_A
*1779 ANTENNA_c177_B
*1780 ANTENNA_c177_C_N
*1781 ANTENNA_c177_D_N
*1782 ANTENNA_c177_X
*1783 ANTENNA_c178_A
*1784 ANTENNA_c178_C_N
*1785 ANTENNA_c178_D_N
*1786 ANTENNA_c179_A1
*1787 ANTENNA_c179_A2
*1788 ANTENNA_c179_B1
*1789 ANTENNA_c179_C1
*1790 ANTENNA_c179_D1
*1791 ANTENNA_c180_A0
*1792 ANTENNA_c180_A1
*1793 ANTENNA_c180_A2
*1794 ANTENNA_c180_S0
*1795 ANTENNA_c180_S1
*1796 ANTENNA_c181_A1
*1797 ANTENNA_c181_A2
*1798 ANTENNA_c181_A3
*1799 ANTENNA_c181_S0
*1800 ANTENNA_c182_B
*1801 ANTENNA_c182_C_N
*1802 ANTENNA_c182_D_N
*1803 ANTENNA_c183_A0
*1804 ANTENNA_c183_A2
*1805 ANTENNA_c183_A3
*1806 ANTENNA_c183_S0
*1807 ANTENNA_c183_S1
*1808 ANTENNA_c183_X
*1809 ANTENNA_c184_A0
*1810 ANTENNA_c184_S1
*1811 ANTENNA_c185_A0
*1812 ANTENNA_c185_A1
*1813 ANTENNA_c185_A2
*1814 ANTENNA_c185_A3
*1815 ANTENNA_c185_S1
*1816 ANTENNA_c186_A1
*1817 ANTENNA_c186_A2
*1818 ANTENNA_c186_C1
*1819 ANTENNA_c186_D1
*1820 ANTENNA_c187_A
*1821 ANTENNA_c187_B
*1822 ANTENNA_c187_C
*1823 ANTENNA_c188_A0
*1824 ANTENNA_c188_A1
*1825 ANTENNA_c188_A3
*1826 ANTENNA_c188_S0
*1827 ANTENNA_c188_S1
*1828 ANTENNA_c188_X
*1829 ANTENNA_c189_B1
*1830 ANTENNA_c190_B
*1831 ANTENNA_c190_C_N
*1832 ANTENNA_c191_A1
*1833 ANTENNA_c191_A2
*1834 ANTENNA_c191_A3
*1835 ANTENNA_c191_S1