*SPEF "ieee 1481-1999"
*DESIGN "netlist_0"
*DATE "20:18:19 Saturday August 17, 2024"
*VENDOR "The OpenROAD Project"
*PROGRAM "OpenROAD"
*VERSION "d423155d69de7f683a23f6916ead418a615ad4ad"
*DESIGN_FLOW "NAME_SCOPE LOCAL" "PIN_CAP NONE"
*DIVIDER /
*DELIMITER :
*BUS_DELIMITER []
*T_UNIT 1 NS
*C_UNIT 1 PF
*R_UNIT 1 OHM
*L_UNIT 1 HENRY

*NAME_MAP
*3 clk
*4 in0
*5 in1
*6 in10
*7 in11
*8 in12
*9 in13
*10 in14
*11 in15
*12 in16
*13 in17
*14 in18
*15 in19
*16 in2
*17 in20
*18 in21
*19 in22
*20 in23
*21 in24
*22 in3
*23 in4
*24 in5
*25 in6
*26 in7
*27 in8
*28 in9
*29 out0
*30 out1
*31 out10
*32 out11
*33 out12
*34 out13
*35 out14
*36 out15
*37 out16
*38 out17
*39 out18
*40 out19
*41 out2
*42 out20
*43 out21
*44 out22
*45 out23
*46 out24
*47 out3
*48 out4
*49 out5
*50 out6
*51 out7
*52 out8
*53 out9
*54 rst
*55 clknet_0_clk
*56 clknet_0_net158
*57 clknet_0_net160
*58 clknet_0_net165
*59 clknet_0_net166
*60 clknet_0_net171
*61 clknet_0_net242
*62 clknet_0_net250
*63 clknet_0_net251
*64 clknet_0_net252
*65 clknet_0_net253
*66 clknet_0_net255
*67 clknet_0_net258
*68 clknet_0_net260
*69 clknet_0_net261
*70 clknet_0_net287
*71 clknet_0_net290
*72 clknet_0_net294
*73 clknet_0_net356
*74 clknet_0_net359
*75 clknet_0_net390
*76 clknet_0_net398
*77 clknet_0_net399
*78 clknet_0_net401
*79 clknet_0_net402
*80 clknet_0_net432
*81 clknet_0_net449
*82 clknet_0_net463
*83 clknet_0_net517
*84 clknet_0_net539
*85 clknet_0_net596
*86 clknet_0_net757
*87 clknet_0_net814
*88 clknet_1_0__leaf_net158
*89 clknet_1_0__leaf_net160
*90 clknet_1_0__leaf_net165
*91 clknet_1_0__leaf_net166
*92 clknet_1_0__leaf_net171
*93 clknet_1_0__leaf_net242
*94 clknet_1_0__leaf_net250
*95 clknet_1_0__leaf_net251
*96 clknet_1_0__leaf_net252
*97 clknet_1_0__leaf_net253
*98 clknet_1_0__leaf_net255
*99 clknet_1_0__leaf_net258
*100 clknet_1_0__leaf_net260
*101 clknet_1_0__leaf_net261
*102 clknet_1_0__leaf_net287
*103 clknet_1_0__leaf_net290
*104 clknet_1_0__leaf_net294
*105 clknet_1_0__leaf_net356
*106 clknet_1_0__leaf_net359
*107 clknet_1_0__leaf_net390
*108 clknet_1_0__leaf_net398
*109 clknet_1_0__leaf_net399
*110 clknet_1_0__leaf_net401
*111 clknet_1_0__leaf_net402
*112 clknet_1_0__leaf_net432
*113 clknet_1_0__leaf_net449
*114 clknet_1_0__leaf_net463
*115 clknet_1_0__leaf_net517
*116 clknet_1_0__leaf_net539
*117 clknet_1_0__leaf_net596
*118 clknet_1_0__leaf_net757
*119 clknet_1_0__leaf_net814
*120 clknet_1_1__leaf_net158
*121 clknet_1_1__leaf_net160
*122 clknet_1_1__leaf_net165
*123 clknet_1_1__leaf_net166
*124 clknet_1_1__leaf_net171
*125 clknet_1_1__leaf_net242
*126 clknet_1_1__leaf_net250
*127 clknet_1_1__leaf_net251
*128 clknet_1_1__leaf_net252
*129 clknet_1_1__leaf_net253
*130 clknet_1_1__leaf_net255
*131 clknet_1_1__leaf_net258
*132 clknet_1_1__leaf_net260
*133 clknet_1_1__leaf_net261
*134 clknet_1_1__leaf_net287
*135 clknet_1_1__leaf_net290
*136 clknet_1_1__leaf_net294
*137 clknet_1_1__leaf_net356
*138 clknet_1_1__leaf_net359
*139 clknet_1_1__leaf_net390
*140 clknet_1_1__leaf_net398
*141 clknet_1_1__leaf_net399
*142 clknet_1_1__leaf_net401
*143 clknet_1_1__leaf_net402
*144 clknet_1_1__leaf_net432
*145 clknet_1_1__leaf_net449
*146 clknet_1_1__leaf_net463
*147 clknet_1_1__leaf_net517
*148 clknet_1_1__leaf_net539
*149 clknet_1_1__leaf_net596
*150 clknet_1_1__leaf_net757
*151 clknet_1_1__leaf_net814
*152 clknet_2_0__leaf_clk
*153 clknet_2_1__leaf_clk
*154 clknet_2_2__leaf_clk
*155 clknet_2_3__leaf_clk
*156 clknet_leaf_0_clk
*157 clknet_leaf_10_clk
*158 clknet_leaf_11_clk
*159 clknet_leaf_12_clk
*160 clknet_leaf_13_clk
*161 clknet_leaf_14_clk
*162 clknet_leaf_15_clk
*163 clknet_leaf_16_clk
*164 clknet_leaf_17_clk
*165 clknet_leaf_18_clk
*166 clknet_leaf_19_clk
*167 clknet_leaf_1_clk
*168 clknet_leaf_20_clk
*169 clknet_leaf_21_clk
*170 clknet_leaf_22_clk
*171 clknet_leaf_23_clk
*172 clknet_leaf_24_clk
*173 clknet_leaf_25_clk
*174 clknet_leaf_26_clk
*175 clknet_leaf_27_clk
*176 clknet_leaf_28_clk
*177 clknet_leaf_29_clk
*178 clknet_leaf_2_clk
*179 clknet_leaf_30_clk
*180 clknet_leaf_31_clk
*181 clknet_leaf_32_clk
*182 clknet_leaf_33_clk
*183 clknet_leaf_34_clk
*184 clknet_leaf_35_clk
*185 clknet_leaf_36_clk
*186 clknet_leaf_37_clk
*187 clknet_leaf_38_clk
*188 clknet_leaf_3_clk
*189 clknet_leaf_4_clk
*190 clknet_leaf_5_clk
*191 clknet_leaf_6_clk
*192 clknet_leaf_7_clk
*193 clknet_leaf_8_clk
*194 clknet_leaf_9_clk
*195 net0
*196 net1
*197 net10
*198 net100
*199 net101
*200 net102
*201 net103
*202 net104
*203 net105
*204 net106
*205 net107
*206 net108
*207 net109
*208 net11
*209 net110
*210 net111
*211 net112
*212 net113
*213 net114
*214 net115
*215 net116
*216 net117
*217 net118
*218 net119
*219 net12
*220 net120
*221 net121
*222 net122
*223 net123
*224 net124
*225 net125
*226 net126
*227 net127
*228 net128
*229 net129
*230 net13
*231 net130
*232 net131
*233 net132
*234 net133
*235 net134
*236 net135
*237 net136
*238 net137
*239 net138
*240 net139
*241 net14
*242 net140
*243 net141
*244 net142
*245 net143
*246 net144
*247 net145
*248 net146
*249 net147
*250 net148
*251 net149
*252 net15
*253 net150
*254 net151
*255 net152
*256 net153
*257 net154
*258 net155
*259 net156
*260 net157
*261 net158
*262 net159
*263 net16
*264 net160
*265 net161
*266 net162
*267 net163
*268 net164
*269 net165
*270 net166
*271 net167
*272 net168
*273 net169
*274 net17
*275 net170
*276 net171
*277 net172
*278 net173
*279 net174
*280 net175
*281 net176
*282 net177
*283 net178
*284 net179
*285 net18
*286 net180
*287 net181
*288 net182
*289 net183
*290 net184
*291 net185
*292 net186
*293 net187
*294 net188
*295 net189
*296 net19
*297 net190
*298 net191
*299 net192
*300 net193
*301 net194
*302 net195
*303 net196
*304 net197
*305 net198
*306 net199
*307 net2
*308 net20
*309 net200
*310 net201
*311 net202
*312 net203
*313 net204
*314 net205
*315 net206
*316 net207
*317 net208
*318 net209
*319 net21
*320 net210
*321 net211
*322 net212
*323 net213
*324 net214
*325 net215
*326 net216
*327 net217
*328 net218
*329 net219
*330 net22
*331 net220
*332 net221
*333 net222
*334 net223
*335 net224
*336 net225
*337 net226
*338 net227
*339 net228
*340 net229
*341 net23
*342 net230
*343 net231
*344 net232
*345 net233
*346 net234
*347 net235
*348 net236
*349 net237
*350 net238
*351 net239
*352 net24
*353 net240
*354 net241
*355 net242
*356 net243
*357 net244
*358 net245
*359 net246
*360 net247
*361 net248
*362 net249
*363 net25
*364 net250
*365 net251
*366 net252
*367 net253
*368 net254
*369 net255
*370 net256
*371 net257
*372 net258
*373 net259
*374 net26
*375 net260
*376 net261
*377 net262
*378 net263
*379 net264
*380 net265
*381 net266
*382 net267
*383 net268
*384 net269
*385 net27
*386 net270
*387 net271
*388 net272
*389 net273
*390 net274
*391 net275
*392 net276
*393 net277
*394 net278
*395 net279
*396 net28
*397 net280
*398 net281
*399 net282
*400 net283
*401 net284
*402 net285
*403 net286
*404 net287
*405 net288
*406 net289
*407 net29
*408 net290
*409 net291
*410 net292
*411 net293
*412 net294
*413 net295
*414 net296
*415 net297
*416 net298
*417 net299
*418 net3
*419 net30
*420 net300
*421 net301
*422 net302
*423 net303
*424 net304
*425 net305
*426 net306
*427 net307
*428 net308
*429 net309
*430 net31
*431 net310
*432 net311
*433 net312
*434 net313
*435 net314
*436 net315
*437 net316
*438 net317
*439 net318
*440 net319
*441 net32
*442 net320
*443 net321
*444 net322
*445 net323
*446 net324
*447 net325
*448 net326
*449 net327
*450 net328
*451 net329
*452 net33
*453 net330
*454 net331
*455 net332
*456 net333
*457 net334
*458 net335
*459 net336
*460 net337
*461 net338
*462 net339
*463 net34
*464 net340
*465 net341
*466 net342
*467 net343
*468 net344
*469 net345
*470 net346
*471 net347
*472 net348
*473 net349
*474 net35
*475 net350
*476 net351
*477 net352
*478 net353
*479 net354
*480 net355
*481 net356
*482 net357
*483 net358
*484 net359
*485 net36
*486 net360
*487 net361
*488 net362
*489 net363
*490 net364
*491 net365
*492 net366
*493 net367
*494 net368
*495 net369
*496 net37
*497 net370
*498 net371
*499 net372
*500 net373
*501 net374
*502 net375
*503 net376
*504 net377
*505 net378
*506 net379
*507 net38
*508 net380
*509 net381
*510 net382
*511 net383
*512 net384
*513 net385
*514 net386
*515 net387
*516 net388
*517 net389
*518 net39
*519 net390
*520 net391
*521 net392
*522 net393
*523 net394
*524 net395
*525 net396
*526 net397
*527 net398
*528 net399
*529 net4
*530 net40
*531 net400
*532 net401
*533 net402
*534 net403
*535 net404
*536 net405
*537 net406
*538 net407
*539 net408
*540 net409
*541 net41
*542 net410
*543 net411
*544 net412
*545 net413
*546 net414
*547 net415
*548 net416
*549 net417
*550 net418
*551 net419
*552 net42
*553 net420
*554 net421
*555 net422
*556 net423
*557 net424
*558 net425
*559 net426
*560 net427
*561 net428
*562 net429
*563 net43
*564 net430
*565 net431
*566 net432
*567 net433
*568 net434
*569 net435
*570 net436
*571 net437
*572 net438
*573 net439
*574 net44
*575 net440
*576 net441
*577 net442
*578 net443
*579 net444
*580 net445
*581 net446
*582 net447
*583 net448
*584 net449
*585 net45
*586 net450
*587 net451
*588 net452
*589 net453
*590 net454
*591 net455
*592 net456
*593 net457
*594 net458
*595 net459
*596 net46
*597 net460
*598 net461
*599 net462
*600 net463
*601 net464
*602 net465
*603 net466
*604 net467
*605 net468
*606 net469
*607 net47
*608 net470
*609 net471
*610 net472
*611 net473
*612 net474
*613 net475
*614 net476
*615 net477
*616 net478
*617 net479
*618 net48
*619 net480
*620 net481
*621 net482
*622 net483
*623 net484
*624 net485
*625 net486
*626 net487
*627 net488
*628 net489
*629 net49
*630 net490
*631 net491
*632 net492
*633 net493
*634 net494
*635 net495
*636 net496
*637 net497
*638 net498
*639 net499
*640 net5
*641 net50
*642 net500
*643 net501
*644 net502
*645 net503
*646 net504
*647 net505
*648 net506
*649 net507
*650 net508
*651 net509
*652 net51
*653 net510
*654 net511
*655 net512
*656 net513
*657 net514
*658 net515
*659 net516
*660 net517
*661 net518
*662 net519
*663 net52
*664 net520
*665 net521
*666 net522
*667 net523
*668 net524
*669 net525
*670 net526
*671 net527
*672 net528
*673 net529
*674 net53
*675 net530
*676 net531
*677 net532
*678 net533
*679 net534
*680 net535
*681 net536
*682 net537
*683 net538
*684 net539
*685 net54
*686 net540
*687 net541
*688 net542
*689 net543
*690 net544
*691 net545
*692 net546
*693 net547
*694 net548
*695 net549
*696 net55
*697 net550
*698 net551
*699 net552
*700 net553
*701 net554
*702 net555
*703 net556
*704 net557
*705 net558
*706 net559
*707 net56
*708 net560
*709 net561
*710 net562
*711 net563
*712 net564
*713 net565
*714 net566
*715 net567
*716 net568
*717 net569
*718 net57
*719 net570
*720 net571
*721 net572
*722 net573
*723 net574
*724 net575
*725 net576
*726 net577
*727 net578
*728 net579
*729 net58
*730 net580
*731 net581
*732 net582
*733 net583
*734 net584
*735 net585
*736 net586
*737 net587
*738 net588
*739 net589
*740 net59
*741 net590
*742 net591
*743 net592
*744 net593
*745 net594
*746 net595
*747 net596
*748 net597
*749 net598
*750 net599
*751 net6
*752 net60
*753 net600
*754 net601
*755 net602
*756 net603
*757 net604
*758 net605
*759 net606
*760 net607
*761 net608
*762 net609
*763 net61
*764 net610
*765 net611
*766 net612
*767 net613
*768 net614
*769 net615
*770 net616
*771 net617
*772 net618
*773 net619
*774 net62
*775 net620
*776 net621
*777 net622
*778 net623
*779 net624
*780 net625
*781 net626
*782 net627
*783 net628
*784 net629
*785 net63
*786 net630
*787 net631
*788 net632
*789 net633
*790 net634
*791 net635
*792 net636
*793 net637
*794 net638
*795 net639
*796 net64
*797 net640
*798 net641
*799 net642
*800 net643
*801 net644
*802 net645
*803 net646
*804 net647
*805 net648
*806 net649
*807 net65
*808 net650
*809 net651
*810 net652
*811 net653
*812 net654
*813 net655
*814 net656
*815 net657
*816 net658
*817 net659
*818 net66
*819 net660
*820 net661
*821 net662
*822 net663
*823 net664
*824 net665
*825 net666
*826 net667
*827 net668
*828 net669
*829 net67
*830 net670
*831 net671
*832 net672
*833 net673
*834 net674
*835 net675
*836 net676
*837 net677
*838 net678
*839 net679
*840 net68
*841 net680
*842 net681
*843 net682
*844 net683
*845 net684
*846 net685
*847 net686
*848 net687
*849 net688
*850 net689
*851 net69
*852 net690
*853 net691
*854 net692
*855 net693
*856 net694
*857 net695
*858 net696
*859 net697
*860 net698
*861 net699
*862 net7
*863 net70
*864 net700
*865 net701
*866 net702
*867 net703
*868 net704
*869 net705
*870 net706
*871 net707
*872 net708
*873 net709
*874 net71
*875 net710
*876 net711
*877 net712
*878 net713
*879 net714
*880 net715
*881 net716
*882 net717
*883 net718
*884 net719
*885 net72
*886 net720
*887 net721
*888 net722
*889 net723
*890 net724
*891 net725
*892 net726
*893 net727
*894 net728
*895 net729
*896 net73
*897 net730
*898 net731
*899 net732
*900 net733
*901 net734
*902 net735
*903 net736
*904 net737
*905 net738
*906 net739
*907 net74
*908 net740
*909 net741
*910 net742
*911 net743
*912 net744
*913 net745
*914 net746
*915 net747
*916 net748
*917 net749
*918 net75
*919 net750
*920 net751
*921 net752
*922 net753
*923 net754
*924 net755
*925 net756
*926 net757
*927 net758
*928 net759
*929 net76
*930 net760
*931 net761
*932 net762
*933 net763
*934 net764
*935 net765
*936 net766
*937 net767
*938 net768
*939 net769
*940 net77
*941 net770
*942 net771
*943 net772
*944 net773
*945 net774
*946 net775
*947 net776
*948 net777
*949 net778
*950 net779
*951 net78
*952 net780
*953 net781
*954 net782
*955 net783
*956 net784
*957 net785
*958 net786
*959 net787
*960 net788
*961 net789
*962 net79
*963 net790
*964 net791
*965 net792
*966 net793
*967 net794
*968 net795
*969 net796
*970 net797
*971 net798
*972 net799
*973 net8
*974 net80
*975 net800
*976 net801
*977 net802
*978 net803
*979 net804
*980 net805
*981 net806
*982 net807
*983 net808
*984 net809
*985 net81
*986 net810
*987 net811
*988 net812
*989 net813
*990 net814
*991 net815
*992 net816
*993 net817
*994 net818
*995 net819
*996 net82
*997 net820
*998 net821
*999 net822
*1000 net823
*1001 net824
*1002 net825
*1003 net826
*1004 net827
*1005 net828
*1006 net829
*1007 net83
*1008 net830
*1009 net831
*1010 net832
*1011 net833
*1012 net834
*1013 net835
*1014 net836
*1015 net837
*1016 net838
*1017 net839
*1018 net84
*1019 net840
*1020 net841
*1021 net842
*1022 net843
*1023 net844
*1024 net845
*1025 net846
*1026 net847
*1027 net848
*1028 net849
*1029 net85
*1030 net850
*1031 net851
*1032 net852
*1033 net853
*1034 net854
*1035 net855
*1036 net856
*1037 net857
*1038 net858
*1039 net859
*1040 net86
*1041 net860
*1042 net861
*1043 net862
*1044 net863
*1045 net864
*1046 net865
*1047 net866
*1048 net867
*1049 net868
*1050 net869
*1051 net87
*1052 net870
*1053 net871
*1054 net872
*1055 net873
*1056 net874
*1057 net875
*1058 net876
*1059 net877
*1060 net878
*1061 net879
*1062 net88
*1063 net880
*1064 net881
*1065 net882
*1066 net883
*1067 net884
*1068 net885
*1069 net886
*1070 net887
*1071 net888
*1072 net889
*1073 net89
*1074 net890
*1075 net891
*1076 net892
*1077 net893
*1078 net894
*1079 net895
*1080 net896
*1081 net897
*1082 net898
*1083 net899
*1084 net9
*1085 net90
*1086 net900
*1087 net901
*1088 net902
*1089 net903
*1090 net904
*1091 net905
*1092 net906
*1093 net907
*1094 net908
*1095 net909
*1096 net91
*1097 net910
*1098 net911
*1099 net912
*1100 net913
*1101 net914
*1102 net915
*1103 net916
*1104 net917
*1105 net918
*1106 net919
*1107 net92
*1108 net920
*1109 net921
*1110 net922
*1111 net923
*1112 net924
*1113 net925
*1114 net926
*1115 net927
*1116 net928
*1117 net929
*1118 net93
*1119 net930
*1120 net931
*1121 net932
*1122 net933
*1123 net934
*1124 net935
*1125 net936
*1126 net937
*1127 net938
*1128 net939
*1129 net94
*1130 net940
*1131 net941
*1132 net942
*1133 net943
*1134 net944
*1135 net945
*1136 net946
*1137 net947
*1138 net948
*1139 net949
*1140 net95
*1141 net950
*1142 net951
*1143 net952
*1144 net953
*1145 net954
*1146 net955
*1147 net956
*1148 net957
*1149 net958
*1150 net959
*1151 net96
*1152 net960
*1153 net961
*1154 net962
*1155 net963
*1156 net964
*1157 net965
*1158 net966
*1159 net967
*1160 net968
*1161 net969
*1162 net97
*1163 net970
*1164 net971
*1165 net972
*1166 net973
*1167 net974
*1168 net975
*1169 net976
*1170 net977
*1171 net979
*1172 net98
*1173 net980
*1174 net981
*1175 net99
*1176 ANTENNA_c100_Y
*1177 ANTENNA_c101_Q
*1178 ANTENNA_c102_A2
*1179 ANTENNA_c102_A3
*1180 ANTENNA_c102_S0
*1181 ANTENNA_c103_B
*1182 ANTENNA_c104_SCD
*1183 ANTENNA_c105_A
*1184 ANTENNA_c106_SCD
*1185 ANTENNA_c114_B
*1186 ANTENNA_c117_B1
*1187 ANTENNA_c125_A
*1188 ANTENNA_c126_X
*1189 ANTENNA_c127_A
*1190 ANTENNA_c127_B
*1191 ANTENNA_c128_A
*1192 ANTENNA_c129_B
*1193 ANTENNA_c130_A
*1194 ANTENNA_c130_B
*1195 ANTENNA_c130_Y
*1196 ANTENNA_c131_Y
*1197 ANTENNA_c132_A
*1198 ANTENNA_c133_X
*1199 ANTENNA_c135_X
*1200 ANTENNA_c136_D
*1201 ANTENNA_c136_RESET_B
*1202 ANTENNA_c138_D
*1203 ANTENNA_c139_Q
*1204 ANTENNA_c140_Y
*1205 ANTENNA_c141_D
*1206 ANTENNA_c142_A
*1207 ANTENNA_c142_Y
*1208 ANTENNA_c143_A
*1209 ANTENNA_c143_B
*1210 ANTENNA_c144_A3
*1211 ANTENNA_c144_S0
*1212 ANTENNA_c144_S1
*1213 ANTENNA_c145_B
*1214 ANTENNA_c145_Y
*1215 ANTENNA_c148_A
*1216 ANTENNA_c150_A
*1217 ANTENNA_c150_B
*1218 ANTENNA_c151_D
*1219 ANTENNA_c152_A
*1220 ANTENNA_c154_X
*1221 ANTENNA_c155_Y
*1222 ANTENNA_c156_Q
*1223 ANTENNA_c156_RESET_B
*1224 ANTENNA_c157_B
*1225 ANTENNA_c158_A2
*1226 ANTENNA_c158_X
*1227 ANTENNA_c159_A2
*1228 ANTENNA_c159_B1_N
*1229 ANTENNA_c160_B
*1230 ANTENNA_c162_Y
*1231 ANTENNA_c163_Q
*1232 ANTENNA_c163_SCE
*1233 ANTENNA_c164_Q
*1234 ANTENNA_c164_Q_N
*1235 ANTENNA_c164_RESET_B
*1236 ANTENNA_c164_SCE
*1237 ANTENNA_c164_SET_B
*1238 ANTENNA_c165_A2
*1239 ANTENNA_c165_A3
*1240 ANTENNA_c165_S0
*1241 ANTENNA_c165_S1
*1242 ANTENNA_c165_X
*1243 ANTENNA_c166_D
*1244 ANTENNA_c168_X
*1245 ANTENNA_c169_A1
*1246 ANTENNA_c169_A2
*1247 ANTENNA_c169_B1_N
*1248 ANTENNA_c171_B
*1249 ANTENNA_c173_D
*1250 ANTENNA_c173_DE
*1251 ANTENNA_c174_GATE
*1252 ANTENNA_c175_GCLK
*1253 ANTENNA_c176_GATE
*1254 ANTENNA_c176_SCE
*1255 ANTENNA_c177_A2
*1256 ANTENNA_c178_A
*1257 ANTENNA_c179_Q
*1258 ANTENNA_c182_A2
*1259 ANTENNA_c183_S0
*1260 ANTENNA_c184_B
*1261 ANTENNA_c186_A0
*1262 ANTENNA_c186_A1
*1263 ANTENNA_c186_S0
*1264 ANTENNA_c190_X
*1265 ANTENNA_c192_D
*1266 ANTENNA_c193_SCE
*1267 ANTENNA_c194_D
*1268 ANTENNA_c200_SCE
*1269 ANTENNA_c201_X
*1270 ANTENNA_c202_B
*1271 ANTENNA_c203_RESET_B
*1272 ANTENNA_c207_B
*1273 ANTENNA_c208_D
*1274 ANTENNA_c209_RESET_B
*1275 ANTENNA_c211_D
*1276 ANTENNA_c212_B
*1277 ANTENNA_c213_D
*1278 ANTENNA_c214_B
*1279 ANTENNA_c215_A
*1280 ANTENNA_c215_B
*1281 ANTENNA_c217_SET_B
*1282 ANTENNA_c225_D
*1283 ANTENNA_c225_Q
*1284 ANTENNA_c225_Q_N
*1285 ANTENNA_c225_RESET_B
*1286 ANTENNA_c226_B
*1287 ANTENNA_c227_D
*1288 ANTENNA_c227_SET_B
*1289 ANTENNA_c229_RESET_B
*1290 ANTENNA_c230_A3
*1291 ANTENNA_c231_D
*1292 ANTENNA_c238_B
*1293 ANTENNA_c242_B1_N
*1294 ANTENNA_c243_D
*1295 ANTENNA_c248_A2
*1296 ANTENNA_c249_DE
*1297 ANTENNA_c252_A
*1298 ANTENNA_c256_X
*1299 ANTENNA_c258_A
*1300 ANTENNA_c258_B
*1301 ANTENNA_c258_Y
*1302 ANTENNA_c259_SCE
*1303 ANTENNA_c25_A
*1304 ANTENNA_c260_A
*1305 ANTENNA_c26_A
*1306 ANTENNA_c26_B
*1307 ANTENNA_c26_Y
*1308 ANTENNA_c270_SCE
*1309 ANTENNA_c271_X
*1310 ANTENNA_c272_S0
*1311 ANTENNA_c273_Y
*1312 ANTENNA_c276_Y
*1313 ANTENNA_c277_X
*1314 ANTENNA_c278_D
*1315 ANTENNA_c278_RESET_B
*1316 ANTENNA_c279_A
*1317 ANTENNA_c279_B
*1318 ANTENNA_c279_Y
*1319 ANTENNA_c27_B
*1320 ANTENNA_c27_Y
*1321 ANTENNA_c281_D
*1322 ANTENNA_c282_B
*1323 ANTENNA_c282_Y
*1324 ANTENNA_c284_B
*1325 ANTENNA_c286_A
*1326 ANTENNA_c287_SCE
*1327 ANTENNA_c288_S0
*1328 ANTENNA_c288_S1
*1329 ANTENNA_c289_Q
*1330 ANTENNA_c289_SCD
*1331 ANTENNA_c28_B
*1332 ANTENNA_c291_D
*1333 ANTENNA_c292_X
*1334 ANTENNA_c293_A2
*1335 ANTENNA_c293_X
*1336 ANTENNA_c294_B
*1337 ANTENNA_c294_Y
*1338 ANTENNA_c295_A1
*1339 ANTENNA_c295_A2
*1340 ANTENNA_c296_SCE
*1341 ANTENNA_c296_SET_B
*1342 ANTENNA_c297_A
*1343 ANTENNA_c297_B
*1344 ANTENNA_c297_Y
*1345 ANTENNA_c298_B
*1346 ANTENNA_c29_A
*1347 ANTENNA_c29_B
*1348 ANTENNA_c29_Y
*1349 ANTENNA_c301_Q
*1350 ANTENNA_c302_A
*1351 ANTENNA_c302_Y
*1352 ANTENNA_c303_A1
*1353 ANTENNA_c303_A2
*1354 ANTENNA_c303_A3
*1355 ANTENNA_c303_A4
*1356 ANTENNA_c304_A3
*1357 ANTENNA_c304_S0
*1358 ANTENNA_c304_S1
*1359 ANTENNA_c305_Q
*1360 ANTENNA_c306_A
*1361 ANTENNA_c306_B
*1362 ANTENNA_c307_B
*1363 ANTENNA_c307_Y
*1364 ANTENNA_c308_A1
*1365 ANTENNA_c308_A2
*1366 ANTENNA_c309_Y
*1367 ANTENNA_c30_A
*1368 ANTENNA_c30_B
*1369 ANTENNA_c30_Y
*1370 ANTENNA_c310_D
*1371 ANTENNA_c310_RESET_B
*1372 ANTENNA_c310_SET_B
*1373 ANTENNA_c311_SET_B
*1374 ANTENNA_c312_B
*1375 ANTENNA_c313_A1
*1376 ANTENNA_c313_A2
*1377 ANTENNA_c314_D
*1378 ANTENNA_c315_A1
*1379 ANTENNA_c315_A3
*1380 ANTENNA_c315_S0
*1381 ANTENNA_c319_B
*1382 ANTENNA_c31_Y
*1383 ANTENNA_c320_A
*1384 ANTENNA_c320_B
*1385 ANTENNA_c322_SET_B
*1386 ANTENNA_c324_B
*1387 ANTENNA_c327_SCD
*1388 ANTENNA_c327_SCE
*1389 ANTENNA_c328_B
*1390 ANTENNA_c32_B
*1391 ANTENNA_c32_Y
*1392 ANTENNA_c330_Y
*1393 ANTENNA_c331_SCD
*1394 ANTENNA_c332_SET_B
*1395 ANTENNA_c334_S1
*1396 ANTENNA_c335_Y
*1397 ANTENNA_c336_A
*1398 ANTENNA_c339_A
*1399 ANTENNA_c339_B
*1400 ANTENNA_c33_A
*1401 ANTENNA_c33_X
*1402 ANTENNA_c340_SCD
*1403 ANTENNA_c340_SCE
*1404 ANTENNA_c343_A2
*1405 ANTENNA_c343_B1_N
*1406 ANTENNA_c344_SCE
*1407 ANTENNA_c345_D
*1408 ANTENNA_c347_SET_B
*1409 ANTENNA_c349_SCE
*1410 ANTENNA_c34_A
*1411 ANTENNA_c34_X
*1412 ANTENNA_c350_B
*1413 ANTENNA_c351_A2
*1414 ANTENNA_c352_A2
*1415 ANTENNA_c352_X
*1416 ANTENNA_c353_D
*1417 ANTENNA_c354_D
*1418 ANTENNA_c354_SET_B
*1419 ANTENNA_c356_D
*1420 ANTENNA_c356_SET_B
*1421 ANTENNA_c358_D
*1422 ANTENNA_c359_A
*1423 ANTENNA_c35_A1
*1424 ANTENNA_c35_A2
*1425 ANTENNA_c35_B1_N
*1426 ANTENNA_c360_RESET_B
*1427 ANTENNA_c367_RESET_B
*1428 ANTENNA_c36_X
*1429 ANTENNA_c370_SCE
*1430 ANTENNA_c372_A1
*1431 ANTENNA_c373_A2
*1432 ANTENNA_c376_A0
*1433 ANTENNA_c376_A3
*1434 ANTENNA_c378_B
*1435 ANTENNA_c378_Y
*1436 ANTENNA_c379_X
*1437 ANTENNA_c37_B
*1438 ANTENNA_c381_X
*1439 ANTENNA_c382_A
*1440 ANTENNA_c382_X
*1441 ANTENNA_c383_A
*1442 ANTENNA_c383_X
*1443 ANTENNA_c384_A
*1444 ANTENNA_c384_X
*1445 ANTENNA_c385_A
*1446 ANTENNA_c385_B
*1447 ANTENNA_c387_D
*1448 ANTENNA_c388_Q
*1449 ANTENNA_c388_RESET_B
*1450 ANTENNA_c389_A
*1451 ANTENNA_c38_A2
*1452 ANTENNA_c38_B1_N
*1453 ANTENNA_c38_X
*1454 ANTENNA_c390_B
*1455 ANTENNA_c391_S0
*1456 ANTENNA_c391_S1
*1457 ANTENNA_c393_A
*1458 ANTENNA_c394_B
*1459 ANTENNA_c396_Q
*1460 ANTENNA_c397_SCD
*1461 ANTENNA_c39_X
*1462 ANTENNA_c401_B
*1463 ANTENNA_c403_A2
*1464 ANTENNA_c404_A2
*1465 ANTENNA_c404_B1_N
*1466 ANTENNA_c405_B
*1467 ANTENNA_c405_Y
*1468 ANTENNA_c408_DE
*1469 ANTENNA_c408_Q
*1470 ANTENNA_c40_A1
*1471 ANTENNA_c40_A2
*1472 ANTENNA_c40_B1_N
*1473 ANTENNA_c40_X
*1474 ANTENNA_c411_Y
*1475 ANTENNA_c412_B1_N
*1476 ANTENNA_c413_A
*1477 ANTENNA_c413_B
*1478 ANTENNA_c414_D
*1479 ANTENNA_c414_SCD
*1480 ANTENNA_c414_SCE
*1481 ANTENNA_c415_SCD
*1482 ANTENNA_c417_SCE
*1483 ANTENNA_c418_SCD
*1484 ANTENNA_c418_SCE
*1485 ANTENNA_c418_SET_B
*1486 ANTENNA_c419_A3
*1487 ANTENNA_c419_A4
*1488 ANTENNA_c419_B1
*1489 ANTENNA_c41_D
*1490 ANTENNA_c41_RESET_B
*1491 ANTENNA_c420_SCD
*1492 ANTENNA_c423_SCE
*1493 ANTENNA_c424_SCE
*1494 ANTENNA_c425_GATE
*1495 ANTENNA_c426_RESET_B
*1496 ANTENNA_c427_D
*1497 ANTENNA_c427_SCD
*1498 ANTENNA_c428_B
*1499 ANTENNA_c430_RESET_B
*1500 ANTENNA_c431_A2
*1501 ANTENNA_c434_Q
*1502 ANTENNA_c434_RESET_B
*1503 ANTENNA_c435_D
*1504 ANTENNA_c435_SCE
*1505 ANTENNA_c436_D
*1506 ANTENNA_c436_Q
*1507 ANTENNA_c438_A3
*1508 ANTENNA_c438_S1
*1509 ANTENNA_c439_A1
*1510 ANTENNA_c439_A3
*1511 ANTENNA_c439_S0
*1512 ANTENNA_c43_A
*1513 ANTENNA_c440_RESET_B
*1514 ANTENNA_c441_A2
*1515 ANTENNA_c441_B1_N
*1516 ANTENNA_c442_B
*1517 ANTENNA_c447_RESET_B
*1518 ANTENNA_c448_D
*1519 ANTENNA_c448_SET_B
*1520 ANTENNA_c450_RESET_B
*1521 ANTENNA_c450_SET_B
*1522 ANTENNA_c451_Q
*1523 ANTENNA_c452_SCE
*1524 ANTENNA_c454_A2
*1525 ANTENNA_c454_A4
*1526 ANTENNA_c455_A3
*1527 ANTENNA_c458_Q
*1528 ANTENNA_c458_SCE
*1529 ANTENNA_c45_X
*1530 ANTENNA_c461_A2
*1531 ANTENNA_c461_A3
*1532 ANTENNA_c461_B1
*1533 ANTENNA_c461_X
*1534 ANTENNA_c462_A2
*1535 ANTENNA_c462_A3
*1536 ANTENNA_c462_B1
*1537 ANTENNA_c463_A2
*1538 ANTENNA_c463_B1_N
*1539 ANTENNA_c463_X
*1540 ANTENNA_c464_D
*1541 ANTENNA_c464_SCE
*1542 ANTENNA_c465_A2
*1543 ANTENNA_c465_A3
*1544 ANTENNA_c465_A4
*1545 ANTENNA_c466_A1
*1546 ANTENNA_c466_A2
*1547 ANTENNA_c466_A3
*1548 ANTENNA_c467_D
*1549 ANTENNA_c467_SCE
*1550 ANTENNA_c468_SET_B
*1551 ANTENNA_c469_B
*1552 ANTENNA_c471_B
*1553 ANTENNA_c472_A
*1554 ANTENNA_c474_RESET_B
*1555 ANTENNA_c474_SCD
*1556 ANTENNA_c475_SET_B
*1557 ANTENNA_c477_Q
*1558 ANTENNA_c478_SET_B
*1559 ANTENNA_c47_X
*1560 ANTENNA_c480_SCD
*1561 ANTENNA_c480_SCE
*1562 ANTENNA_c481_SCE
*1563 ANTENNA_c489_B1_N
*1564 ANTENNA_c48_A
*1565 ANTENNA_c48_B
*1566 ANTENNA_c490_B
*1567 ANTENNA_c491_A2
*1568 ANTENNA_c491_B1_N
*1569 ANTENNA_c492_SCD
*1570 ANTENNA_c494_A2
*1571 ANTENNA_c495_SCD
*1572 ANTENNA_c495_SCE
*1573 ANTENNA_c496_B1_N
*1574 ANTENNA_c500_B1_N
*1575 ANTENNA_c503_B1_N
*1576 ANTENNA_c504_Y
*1577 ANTENNA_c505_Q
*1578 ANTENNA_c505_SET_B
*1579 ANTENNA_c506_D
*1580 ANTENNA_c506_Q
*1581 ANTENNA_c506_SET_B
*1582 ANTENNA_c507_RESET_B
*1583 ANTENNA_c50_A
*1584 ANTENNA_c50_X
*1585 ANTENNA_c513_A1
*1586 ANTENNA_c513_B1_N
*1587 ANTENNA_c519_A2
*1588 ANTENNA_c51_X
*1589 ANTENNA_c521_Q
*1590 ANTENNA_c522_RESET_B
*1591 ANTENNA_c523_RESET_B
*1592 ANTENNA_c525_A
*1593 ANTENNA_c527_A
*1594 ANTENNA_c527_B
*1595 ANTENNA_c528_B
*1596 ANTENNA_c529_B
*1597 ANTENNA_c52_B
*1598 ANTENNA_c530_B
*1599 ANTENNA_c531_Y
*1600 ANTENNA_c532_RESET_B
*1601 ANTENNA_c533_B
*1602 ANTENNA_c534_RESET_B
*1603 ANTENNA_c535_B
*1604 ANTENNA_c536_DE
*1605 ANTENNA_c537_DE
*1606 ANTENNA_c538_SCE
*1607 ANTENNA_c542_SCE
*1608 ANTENNA_c543_D
*1609 ANTENNA_c543_SCE
*1610 ANTENNA_c544_A3
*1611 ANTENNA_c544_S1
*1612 ANTENNA_c545_RESET_B
*1613 ANTENNA_c545_SCD
*1614 ANTENNA_c545_SCE
*1615 ANTENNA_c546_A2
*1616 ANTENNA_c547_D
*1617 ANTENNA_c547_SCD
*1618 ANTENNA_c548_Y
*1619 ANTENNA_c549_D
*1620 ANTENNA_c549_SCE
*1621 ANTENNA_c54_RESET_B
*1622 ANTENNA_c550_SCD
*1623 ANTENNA_c550_SCE
*1624 ANTENNA_c550_SET_B
*1625 ANTENNA_c551_B1_N
*1626 ANTENNA_c552_A2
*1627 ANTENNA_c553_A1
*1628 ANTENNA_c553_A2
*1629 ANTENNA_c554_A2
*1630 ANTENNA_c556_A
*1631 ANTENNA_c556_Y
*1632 ANTENNA_c557_A
*1633 ANTENNA_c558_SCD
*1634 ANTENNA_c558_SCE
*1635 ANTENNA_c559_B
*1636 ANTENNA_c559_Y
*1637 ANTENNA_c560_A
*1638 ANTENNA_c560_B
*1639 ANTENNA_c562_A2
*1640 ANTENNA_c564_A1
*1641 ANTENNA_c564_A2
*1642 ANTENNA_c564_A3
*1643 ANTENNA_c564_S0
*1644 ANTENNA_c564_S1
*1645 ANTENNA_c567_X
*1646 ANTENNA_c568_A1
*1647 ANTENNA_c568_A2
*1648 ANTENNA_c568_A3
*1649 ANTENNA_c568_A4
*1650 ANTENNA_c568_B1
*1651 ANTENNA_c56_A1
*1652 ANTENNA_c56_B1_N
*1653 ANTENNA_c570_A2
*1654 ANTENNA_c571_A2
*1655 ANTENNA_c573_A2
*1656 ANTENNA_c573_X
*1657 ANTENNA_c574_A2
*1658 ANTENNA_c574_A3
*1659 ANTENNA_c574_S0
*1660 ANTENNA_c574_S1
*1661 ANTENNA_c576_D
*1662 ANTENNA_c576_SCE
*1663 ANTENNA_c577_A1
*1664 ANTENNA_c577_A3
*1665 ANTENNA_c577_S0
*1666 ANTENNA_c578_A1
*1667 ANTENNA_c578_B1_N
*1668 ANTENNA_c579_A3
*1669 ANTENNA_c579_S0
*1670 ANTENNA_c582_B1_N
*1671 ANTENNA_c586_B1_N
*1672 ANTENNA_c588_D
*1673 ANTENNA_c588_SET_B
*1674 ANTENNA_c589_A2
*1675 ANTENNA_c589_B1_N
*1676 ANTENNA_c58_RESET_B
*1677 ANTENNA_c590_D
*1678 ANTENNA_c591_D
*1679 ANTENNA_c591_SCE
*1680 ANTENNA_c593_A2
*1681 ANTENNA_c594_A3
*1682 ANTENNA_c594_B1
*1683 ANTENNA_c595_S1
*1684 ANTENNA_c596_RESET_B
*1685 ANTENNA_c596_SCD
*1686 ANTENNA_c597_SCE
*1687 ANTENNA_c598_A0
*1688 ANTENNA_c598_S1
*1689 ANTENNA_c599_SCD
*1690 ANTENNA_c599_SCE
*1691 ANTENNA_c59_A2
*1692 ANTENNA_c59_X
*1693 ANTENNA_c600_Q
*1694 ANTENNA_c600_SET_B
*1695 ANTENNA_c606_A1
*1696 ANTENNA_c607_SCE
*1697 ANTENNA_c608_SCE
*1698 ANTENNA_c633_D
*1699 ANTENNA_c633_RESET_B
*1700 ANTENNA_c634_A
*1701 ANTENNA_c634_B
*1702 ANTENNA_c636_A
*1703 ANTENNA_c637_B
*1704 ANTENNA_c638_A
*1705 ANTENNA_c644_D
*1706 ANTENNA_c646_X
*1707 ANTENNA_c649_A3
*1708 ANTENNA_c64_B
*1709 ANTENNA_c650_A2
*1710 ANTENNA_c650_A4
*1711 ANTENNA_c650_B1
*1712 ANTENNA_c651_A
*1713 ANTENNA_c654_B
*1714 ANTENNA_c655_Y
*1715 ANTENNA_c656_B
*1716 ANTENNA_c657_SCE
*1717 ANTENNA_c658_SET_B
*1718 ANTENNA_c659_Q
*1719 ANTENNA_c663_Q
*1720 ANTENNA_c663_SCD
*1721 ANTENNA_c663_SCE
*1722 ANTENNA_c664_SCE
*1723 ANTENNA_c665_B1_N
*1724 ANTENNA_c667_X
*1725 ANTENNA_c668_SCD
*1726 ANTENNA_c668_SCE
*1727 ANTENNA_c669_D
*1728 ANTENNA_c669_SCE
*1729 ANTENNA_c669_SET_B
*1730 ANTENNA_c66_A
*1731 ANTENNA_c66_B
*1732 ANTENNA_c671_Y
*1733 ANTENNA_c672_A
*1734 ANTENNA_c672_B
*1735 ANTENNA_c673_RESET_B
*1736 ANTENNA_c676_A
*1737 ANTENNA_c678_A1
*1738 ANTENNA_c678_A3
*1739 ANTENNA_c678_S0
*1740 ANTENNA_c678_S1
*1741 ANTENNA_c679_A1
*1742 ANTENNA_c679_B1
*1743 ANTENNA_c67_A
*1744 ANTENNA_c680_A2
*1745 ANTENNA_c682_B1_N
*1746 ANTENNA_c683_A1
*1747 ANTENNA_c685_A1
*1748 ANTENNA_c687_RESET_B
*1749 ANTENNA_c688_D
*1750 ANTENNA_c688_SCD
*1751 ANTENNA_c689_RESET_B
*1752 ANTENNA_c690_B1_N
*1753 ANTENNA_c693_SCD
*1754 ANTENNA_c694_D
*1755 ANTENNA_c695_SCE
*1756 ANTENNA_c696_B1_N
*1757 ANTENNA_c697_RESET_B
*1758 ANTENNA_c697_SCE
*1759 ANTENNA_c697_SET_B
*1760 ANTENNA_c698_SCD
*1761 ANTENNA_c699_D
*1762 ANTENNA_c702_B1_N
*1763 ANTENNA_c703_D
*1764 ANTENNA_c704_SET_B
*1765 ANTENNA_c705_A0
*1766 ANTENNA_c705_A3
*1767 ANTENNA_c705_S1
*1768 ANTENNA_c706_A1
*1769 ANTENNA_c706_B1_N
*1770 ANTENNA_c707_A1
*1771 ANTENNA_c707_A2
*1772 ANTENNA_c707_X
*1773 ANTENNA_c708_A1
*1774 ANTENNA_c708_B1_N
*1775 ANTENNA_c709_A0
*1776 ANTENNA_c709_A3
*1777 ANTENNA_c709_S0
*1778 ANTENNA_c709_S1
*1779 ANTENNA_c70_X
*1780 ANTENNA_c710_D
*1781 ANTENNA_c711_A2
*1782 ANTENNA_c711_S0
*1783 ANTENNA_c712_A1
*1784 ANTENNA_c713_SCD
*1785 ANTENNA_c713_SCE
*1786 ANTENNA_c713_SET_B
*1787 ANTENNA_c714_A1
*1788 ANTENNA_c714_A4
*1789 ANTENNA_c714_B1
*1790 ANTENNA_c715_D
*1791 ANTENNA_c715_SCD
*1792 ANTENNA_c715_SCE
*1793 ANTENNA_c716_D
*1794 ANTENNA_c716_RESET_B
*1795 ANTENNA_c716_SCE
*1796 ANTENNA_c716_SET_B
*1797 ANTENNA_c717_SCD
*1798 ANTENNA_c718_D
*1799 ANTENNA_c718_SCD