*SPEF "ieee 1481-1999"
*DESIGN "netlist_0"
*DATE "17:47:21 Thursday August 08, 2024"
*VENDOR "The OpenROAD Project"
*PROGRAM "OpenROAD"
*VERSION "d423155d69de7f683a23f6916ead418a615ad4ad"
*DESIGN_FLOW "NAME_SCOPE LOCAL" "PIN_CAP NONE"
*DIVIDER /
*DELIMITER :
*BUS_DELIMITER []
*T_UNIT 1 NS
*C_UNIT 1 PF
*R_UNIT 1 OHM
*L_UNIT 1 HENRY

*NAME_MAP
*3 clk
*4 in0
*5 in1
*6 in10
*7 in11
*8 in12
*9 in13
*10 in14
*11 in15
*12 in16
*13 in17
*14 in18
*15 in19
*16 in2
*17 in20
*18 in21
*19 in22
*20 in23
*21 in24
*22 in25
*23 in26
*24 in27
*25 in28
*26 in29
*27 in3
*28 in30
*29 in31
*30 in32
*31 in33
*32 in34
*33 in35
*34 in36
*35 in37
*36 in38
*37 in39
*38 in4
*39 in40
*40 in41
*41 in42
*42 in43
*43 in44
*44 in45
*45 in46
*46 in47
*47 in48
*48 in49
*49 in5
*50 in50
*51 in51
*52 in52
*53 in53
*54 in54
*55 in55
*56 in56
*57 in57
*58 in58
*59 in59
*60 in6
*61 in60
*62 in61
*63 in7
*64 in8
*65 in9
*66 out0
*67 out1
*68 out10
*69 out11
*70 out12
*71 out13
*72 out14
*73 out15
*74 out16
*75 out17
*76 out18
*77 out19
*78 out2
*79 out20
*80 out21
*81 out22
*82 out23
*83 out24
*84 out25
*85 out26
*86 out27
*87 out28
*88 out29
*89 out3
*90 out30
*91 out31
*92 out32
*93 out33
*94 out34
*95 out35
*96 out36
*97 out37
*98 out38
*99 out39
*100 out4
*101 out40
*102 out41
*103 out42
*104 out43
*105 out44
*106 out45
*107 out46
*108 out47
*109 out48
*110 out49
*111 out5
*112 out50
*113 out51
*114 out52
*115 out53
*116 out54
*117 out55
*118 out56
*119 out57
*120 out58
*121 out59
*122 out6
*123 out60
*124 out61
*125 out7
*126 out8
*127 out9
*128 rst
*129 clknet_0_clk
*130 clknet_0_net129
*131 clknet_0_net143
*132 clknet_0_net144
*133 clknet_0_net145
*134 clknet_0_net151
*135 clknet_0_net152
*136 clknet_0_net156
*137 clknet_0_net158
*138 clknet_0_net162
*139 clknet_0_net173
*140 clknet_0_net175
*141 clknet_0_net179
*142 clknet_0_net193
*143 clknet_0_net252
*144 clknet_0_net253
*145 clknet_0_net255
*146 clknet_0_net263
*147 clknet_0_net264
*148 clknet_0_net267
*149 clknet_0_net275
*150 clknet_0_net277
*151 clknet_0_net281
*152 clknet_0_net284
*153 clknet_0_net285
*154 clknet_0_net288
*155 clknet_0_net289
*156 clknet_0_net294
*157 clknet_0_net300
*158 clknet_0_net302
*159 clknet_0_net400
*160 clknet_0_net415
*161 clknet_0_net421
*162 clknet_0_net508
*163 clknet_0_net511
*164 clknet_0_net512
*165 clknet_0_net524
*166 clknet_0_net571
*167 clknet_0_net582
*168 clknet_0_net584
*169 clknet_0_net605
*170 clknet_0_net610
*171 clknet_0_net611
*172 clknet_0_net614
*173 clknet_0_net624
*174 clknet_0_net628
*175 clknet_0_net63
*176 clknet_0_net642
*177 clknet_0_net643
*178 clknet_0_net740
*179 clknet_0_net741
*180 clknet_0_net742
*181 clknet_0_net768
*182 clknet_0_net769
*183 clknet_0_net770
*184 clknet_0_net789
*185 clknet_0_net790
*186 clknet_0_net806
*187 clknet_0_net807
*188 clknet_0_net808
*189 clknet_0_net880
*190 clknet_0_net898
*191 clknet_0_net904
*192 clknet_0_net907
*193 clknet_0_net908
*194 clknet_0_net913
*195 clknet_0_net916
*196 clknet_0_net924
*197 clknet_0_net925
*198 clknet_0_net928
*199 clknet_0_net930
*200 clknet_0_net931
*201 clknet_1_0__leaf_net129
*202 clknet_1_0__leaf_net143
*203 clknet_1_0__leaf_net144
*204 clknet_1_0__leaf_net145
*205 clknet_1_0__leaf_net151
*206 clknet_1_0__leaf_net152
*207 clknet_1_0__leaf_net156
*208 clknet_1_0__leaf_net158
*209 clknet_1_0__leaf_net162
*210 clknet_1_0__leaf_net173
*211 clknet_1_0__leaf_net175
*212 clknet_1_0__leaf_net179
*213 clknet_1_0__leaf_net193
*214 clknet_1_0__leaf_net252
*215 clknet_1_0__leaf_net253
*216 clknet_1_0__leaf_net255
*217 clknet_1_0__leaf_net263
*218 clknet_1_0__leaf_net264
*219 clknet_1_0__leaf_net267
*220 clknet_1_0__leaf_net275
*221 clknet_1_0__leaf_net277
*222 clknet_1_0__leaf_net281
*223 clknet_1_0__leaf_net284
*224 clknet_1_0__leaf_net285
*225 clknet_1_0__leaf_net288
*226 clknet_1_0__leaf_net289
*227 clknet_1_0__leaf_net294
*228 clknet_1_0__leaf_net300
*229 clknet_1_0__leaf_net302
*230 clknet_1_0__leaf_net400
*231 clknet_1_0__leaf_net415
*232 clknet_1_0__leaf_net421
*233 clknet_1_0__leaf_net508
*234 clknet_1_0__leaf_net511
*235 clknet_1_0__leaf_net512
*236 clknet_1_0__leaf_net524
*237 clknet_1_0__leaf_net571
*238 clknet_1_0__leaf_net582
*239 clknet_1_0__leaf_net584
*240 clknet_1_0__leaf_net605
*241 clknet_1_0__leaf_net610
*242 clknet_1_0__leaf_net611
*243 clknet_1_0__leaf_net614
*244 clknet_1_0__leaf_net624
*245 clknet_1_0__leaf_net628
*246 clknet_1_0__leaf_net63
*247 clknet_1_0__leaf_net642
*248 clknet_1_0__leaf_net643
*249 clknet_1_0__leaf_net740
*250 clknet_1_0__leaf_net741
*251 clknet_1_0__leaf_net742
*252 clknet_1_0__leaf_net768
*253 clknet_1_0__leaf_net769
*254 clknet_1_0__leaf_net770
*255 clknet_1_0__leaf_net789
*256 clknet_1_0__leaf_net790
*257 clknet_1_0__leaf_net806
*258 clknet_1_0__leaf_net807
*259 clknet_1_0__leaf_net808
*260 clknet_1_0__leaf_net880
*261 clknet_1_0__leaf_net898
*262 clknet_1_0__leaf_net904
*263 clknet_1_0__leaf_net907
*264 clknet_1_0__leaf_net908
*265 clknet_1_0__leaf_net913
*266 clknet_1_0__leaf_net916
*267 clknet_1_0__leaf_net924
*268 clknet_1_0__leaf_net925
*269 clknet_1_0__leaf_net928
*270 clknet_1_0__leaf_net930
*271 clknet_1_0__leaf_net931
*272 clknet_1_1__leaf_net129
*273 clknet_1_1__leaf_net143
*274 clknet_1_1__leaf_net144
*275 clknet_1_1__leaf_net145
*276 clknet_1_1__leaf_net151
*277 clknet_1_1__leaf_net152
*278 clknet_1_1__leaf_net156
*279 clknet_1_1__leaf_net158
*280 clknet_1_1__leaf_net162
*281 clknet_1_1__leaf_net173
*282 clknet_1_1__leaf_net175
*283 clknet_1_1__leaf_net179
*284 clknet_1_1__leaf_net193
*285 clknet_1_1__leaf_net252
*286 clknet_1_1__leaf_net253
*287 clknet_1_1__leaf_net255
*288 clknet_1_1__leaf_net263
*289 clknet_1_1__leaf_net264
*290 clknet_1_1__leaf_net267
*291 clknet_1_1__leaf_net275
*292 clknet_1_1__leaf_net277
*293 clknet_1_1__leaf_net281
*294 clknet_1_1__leaf_net284
*295 clknet_1_1__leaf_net285
*296 clknet_1_1__leaf_net288
*297 clknet_1_1__leaf_net289
*298 clknet_1_1__leaf_net294
*299 clknet_1_1__leaf_net300
*300 clknet_1_1__leaf_net302
*301 clknet_1_1__leaf_net400
*302 clknet_1_1__leaf_net415
*303 clknet_1_1__leaf_net421
*304 clknet_1_1__leaf_net508
*305 clknet_1_1__leaf_net511
*306 clknet_1_1__leaf_net512
*307 clknet_1_1__leaf_net524
*308 clknet_1_1__leaf_net571
*309 clknet_1_1__leaf_net582
*310 clknet_1_1__leaf_net584
*311 clknet_1_1__leaf_net605
*312 clknet_1_1__leaf_net610
*313 clknet_1_1__leaf_net611
*314 clknet_1_1__leaf_net614
*315 clknet_1_1__leaf_net624
*316 clknet_1_1__leaf_net628
*317 clknet_1_1__leaf_net63
*318 clknet_1_1__leaf_net642
*319 clknet_1_1__leaf_net643
*320 clknet_1_1__leaf_net740
*321 clknet_1_1__leaf_net741
*322 clknet_1_1__leaf_net742
*323 clknet_1_1__leaf_net768
*324 clknet_1_1__leaf_net769
*325 clknet_1_1__leaf_net770
*326 clknet_1_1__leaf_net789
*327 clknet_1_1__leaf_net790
*328 clknet_1_1__leaf_net806
*329 clknet_1_1__leaf_net807
*330 clknet_1_1__leaf_net808
*331 clknet_1_1__leaf_net880
*332 clknet_1_1__leaf_net898
*333 clknet_1_1__leaf_net904
*334 clknet_1_1__leaf_net907
*335 clknet_1_1__leaf_net908
*336 clknet_1_1__leaf_net913
*337 clknet_1_1__leaf_net916
*338 clknet_1_1__leaf_net924
*339 clknet_1_1__leaf_net925
*340 clknet_1_1__leaf_net928
*341 clknet_1_1__leaf_net930
*342 clknet_1_1__leaf_net931
*343 clknet_4_0_0_clk
*344 clknet_4_10_0_clk
*345 clknet_4_11_0_clk
*346 clknet_4_12_0_clk
*347 clknet_4_13_0_clk
*348 clknet_4_14_0_clk
*349 clknet_4_15_0_clk
*350 clknet_4_1_0_clk
*351 clknet_4_2_0_clk
*352 clknet_4_3_0_clk
*353 clknet_4_4_0_clk
*354 clknet_4_5_0_clk
*355 clknet_4_6_0_clk
*356 clknet_4_7_0_clk
*357 clknet_4_8_0_clk
*358 clknet_4_9_0_clk
*359 net0
*360 net1
*361 net10
*362 net100
*363 net1000
*364 net1001
*365 net1002
*366 net1003
*367 net1004
*368 net1005
*369 net1006
*370 net1007
*371 net1008
*372 net1009
*373 net101
*374 net1010
*375 net1011
*376 net1012
*377 net1013
*378 net1014
*379 net1015
*380 net1016
*381 net1017
*382 net1018
*383 net1019
*384 net102
*385 net1020
*386 net1021
*387 net103
*388 net104
*389 net105
*390 net106
*391 net107
*392 net108
*393 net109
*394 net11
*395 net110
*396 net111
*397 net112
*398 net113
*399 net114
*400 net115
*401 net116
*402 net117
*403 net118
*404 net119
*405 net12
*406 net120
*407 net121
*408 net122
*409 net123
*410 net124
*411 net125
*412 net126
*413 net127
*414 net128
*415 net129
*416 net13
*417 net130
*418 net131
*419 net132
*420 net133
*421 net134
*422 net135
*423 net136
*424 net137
*425 net138
*426 net139
*427 net14
*428 net140
*429 net141
*430 net142
*431 net143
*432 net144
*433 net145
*434 net146
*435 net147
*436 net148
*437 net149
*438 net15
*439 net150
*440 net151
*441 net152
*442 net153
*443 net154
*444 net155
*445 net156
*446 net157
*447 net158
*448 net159
*449 net16
*450 net160
*451 net161
*452 net162
*453 net163
*454 net164
*455 net165
*456 net166
*457 net167
*458 net168
*459 net169
*460 net17
*461 net170
*462 net171
*463 net172
*464 net173
*465 net174
*466 net175
*467 net176
*468 net177
*469 net178
*470 net179
*471 net18
*472 net180
*473 net181
*474 net182
*475 net183
*476 net184
*477 net185
*478 net186
*479 net187
*480 net188
*481 net189
*482 net19
*483 net190
*484 net191
*485 net192
*486 net193
*487 net194
*488 net195
*489 net196
*490 net197
*491 net198
*492 net199
*493 net2
*494 net20
*495 net200
*496 net201
*497 net202
*498 net203
*499 net204
*500 net205
*501 net206
*502 net207
*503 net208
*504 net209
*505 net21
*506 net210
*507 net211
*508 net212
*509 net213
*510 net214
*511 net215
*512 net216
*513 net217
*514 net218
*515 net219
*516 net22
*517 net220
*518 net221
*519 net222
*520 net223
*521 net224
*522 net225
*523 net226
*524 net227
*525 net228
*526 net229
*527 net23
*528 net230
*529 net231
*530 net232
*531 net233
*532 net234
*533 net235
*534 net236
*535 net237
*536 net238
*537 net239
*538 net24
*539 net240
*540 net241
*541 net242
*542 net243
*543 net244
*544 net245
*545 net246
*546 net247
*547 net248
*548 net249
*549 net25
*550 net250
*551 net251
*552 net252
*553 net253
*554 net254
*555 net255
*556 net256
*557 net257
*558 net258
*559 net259
*560 net26
*561 net260
*562 net261
*563 net262
*564 net263
*565 net264
*566 net265
*567 net266
*568 net267
*569 net268
*570 net269
*571 net27
*572 net270
*573 net271
*574 net272
*575 net273
*576 net274
*577 net275
*578 net276
*579 net277
*580 net278
*581 net279
*582 net28
*583 net280
*584 net281
*585 net282
*586 net283
*587 net284
*588 net285
*589 net286
*590 net287
*591 net288
*592 net289
*593 net29
*594 net290
*595 net291
*596 net292
*597 net293
*598 net294
*599 net295
*600 net296
*601 net297
*602 net298
*603 net299
*604 net3
*605 net30
*606 net300
*607 net301
*608 net302
*609 net303
*610 net304
*611 net305
*612 net306
*613 net307
*614 net308
*615 net309
*616 net31
*617 net310
*618 net311
*619 net312
*620 net313
*621 net314
*622 net315
*623 net316
*624 net317
*625 net318
*626 net319
*627 net32
*628 net320
*629 net321
*630 net322
*631 net323
*632 net324
*633 net325
*634 net326
*635 net327
*636 net328
*637 net329
*638 net33
*639 net330
*640 net331
*641 net332
*642 net333
*643 net334
*644 net335
*645 net336
*646 net337
*647 net338
*648 net339
*649 net34
*650 net340
*651 net341
*652 net342
*653 net343
*654 net344
*655 net345
*656 net346
*657 net347
*658 net348
*659 net349
*660 net35
*661 net350
*662 net351
*663 net352
*664 net353
*665 net354
*666 net355
*667 net356
*668 net357
*669 net358
*670 net359
*671 net36
*672 net360
*673 net361
*674 net362
*675 net363
*676 net364
*677 net365
*678 net366
*679 net367
*680 net368
*681 net369
*682 net37
*683 net370
*684 net371
*685 net372
*686 net373
*687 net374
*688 net375
*689 net376
*690 net377
*691 net378
*692 net379
*693 net38
*694 net380
*695 net381
*696 net382
*697 net383
*698 net384
*699 net385
*700 net386
*701 net387
*702 net388
*703 net389
*704 net39
*705 net390
*706 net391
*707 net392
*708 net393
*709 net394
*710 net395
*711 net396
*712 net397
*713 net398
*714 net399
*715 net4
*716 net40
*717 net400
*718 net401
*719 net402
*720 net403
*721 net404
*722 net405
*723 net406
*724 net407
*725 net408
*726 net409
*727 net41
*728 net410
*729 net411
*730 net412
*731 net413
*732 net414
*733 net415
*734 net416
*735 net417
*736 net418
*737 net419
*738 net42
*739 net420
*740 net421
*741 net422
*742 net423
*743 net424
*744 net425
*745 net426
*746 net427
*747 net428
*748 net429
*749 net43
*750 net430
*751 net431
*752 net432
*753 net433
*754 net434
*755 net435
*756 net436
*757 net437
*758 net438
*759 net439
*760 net44
*761 net440
*762 net441
*763 net442
*764 net443
*765 net444
*766 net445
*767 net446
*768 net447
*769 net448
*770 net449
*771 net45
*772 net450
*773 net451
*774 net452
*775 net453
*776 net454
*777 net455
*778 net456
*779 net457
*780 net458
*781 net459
*782 net46
*783 net460
*784 net461
*785 net462
*786 net463
*787 net464
*788 net465
*789 net466
*790 net467
*791 net468
*792 net469
*793 net47
*794 net470
*795 net471
*796 net472
*797 net473
*798 net474
*799 net475
*800 net476
*801 net477
*802 net478
*803 net479
*804 net48
*805 net480
*806 net481
*807 net482
*808 net483
*809 net484
*810 net485
*811 net486
*812 net487
*813 net488
*814 net489
*815 net49
*816 net490
*817 net491
*818 net492
*819 net493
*820 net494
*821 net495
*822 net496
*823 net497
*824 net498
*825 net499
*826 net5
*827 net50
*828 net500
*829 net501
*830 net502
*831 net503
*832 net504
*833 net505
*834 net506
*835 net507
*836 net508
*837 net509
*838 net51
*839 net510
*840 net511
*841 net512
*842 net513
*843 net514
*844 net515
*845 net516
*846 net517
*847 net518
*848 net519
*849 net52
*850 net520
*851 net521
*852 net522
*853 net523
*854 net524
*855 net525
*856 net526
*857 net527
*858 net528
*859 net529
*860 net53
*861 net530
*862 net531
*863 net532
*864 net533
*865 net534
*866 net535
*867 net536
*868 net537
*869 net538
*870 net539
*871 net54
*872 net540
*873 net541
*874 net542
*875 net543
*876 net544
*877 net545
*878 net546
*879 net547
*880 net548
*881 net549
*882 net55
*883 net550
*884 net551
*885 net552
*886 net553
*887 net554
*888 net555
*889 net556
*890 net557
*891 net558
*892 net559
*893 net56
*894 net560
*895 net561
*896 net562
*897 net563
*898 net564
*899 net565
*900 net566
*901 net567
*902 net568
*903 net569
*904 net57
*905 net570
*906 net571
*907 net572
*908 net573
*909 net574
*910 net575
*911 net576
*912 net577
*913 net578
*914 net579
*915 net58
*916 net580
*917 net581
*918 net582
*919 net583
*920 net584
*921 net585
*922 net586
*923 net587
*924 net588
*925 net589
*926 net59
*927 net590
*928 net591
*929 net592
*930 net593
*931 net594
*932 net595
*933 net596
*934 net597
*935 net598
*936 net599
*937 net6
*938 net60
*939 net600
*940 net601
*941 net602
*942 net603
*943 net604
*944 net605
*945 net606
*946 net607
*947 net608
*948 net609
*949 net61
*950 net610
*951 net611
*952 net612
*953 net613
*954 net614
*955 net615
*956 net616
*957 net617
*958 net618
*959 net619
*960 net62
*961 net620
*962 net621
*963 net622
*964 net623
*965 net624
*966 net625
*967 net626
*968 net627
*969 net628
*970 net629
*971 net63
*972 net630
*973 net631
*974 net632
*975 net633
*976 net634
*977 net635
*978 net636
*979 net637
*980 net638
*981 net639
*982 net64
*983 net640
*984 net641
*985 net642
*986 net643
*987 net644
*988 net645
*989 net646
*990 net647
*991 net648
*992 net649
*993 net65
*994 net650
*995 net651
*996 net652
*997 net653
*998 net654
*999 net655
*1000 net656
*1001 net657
*1002 net658
*1003 net659
*1004 net66
*1005 net660
*1006 net661
*1007 net662
*1008 net663
*1009 net664
*1010 net665
*1011 net666
*1012 net667
*1013 net668
*1014 net669
*1015 net67
*1016 net670
*1017 net671
*1018 net672
*1019 net673
*1020 net674
*1021 net675
*1022 net676
*1023 net677
*1024 net678
*1025 net679
*1026 net68
*1027 net680
*1028 net681
*1029 net682
*1030 net683
*1031 net684
*1032 net685
*1033 net686
*1034 net687
*1035 net688
*1036 net689
*1037 net69
*1038 net690
*1039 net691
*1040 net692
*1041 net693
*1042 net694
*1043 net695
*1044 net696
*1045 net697
*1046 net698
*1047 net699
*1048 net7
*1049 net70
*1050 net700
*1051 net701
*1052 net702
*1053 net703
*1054 net704
*1055 net705
*1056 net706
*1057 net707
*1058 net708
*1059 net709
*1060 net71
*1061 net710
*1062 net711
*1063 net712
*1064 net713
*1065 net714
*1066 net715
*1067 net716
*1068 net717
*1069 net718
*1070 net719
*1071 net72
*1072 net720
*1073 net721
*1074 net722
*1075 net723
*1076 net724
*1077 net725
*1078 net726
*1079 net727
*1080 net728
*1081 net729
*1082 net73
*1083 net730
*1084 net731
*1085 net732
*1086 net733
*1087 net734
*1088 net735
*1089 net736
*1090 net737
*1091 net738
*1092 net739
*1093 net74
*1094 net740
*1095 net741
*1096 net742
*1097 net743
*1098 net744
*1099 net745
*1100 net746
*1101 net747
*1102 net748
*1103 net749
*1104 net75
*1105 net750
*1106 net751
*1107 net752
*1108 net753
*1109 net754
*1110 net755
*1111 net756
*1112 net757
*1113 net758
*1114 net759
*1115 net76
*1116 net760
*1117 net761
*1118 net762
*1119 net763
*1120 net764
*1121 net765
*1122 net766
*1123 net767
*1124 net768
*1125 net769
*1126 net77
*1127 net770
*1128 net771
*1129 net772
*1130 net773
*1131 net774
*1132 net775
*1133 net776
*1134 net777
*1135 net778
*1136 net779
*1137 net78
*1138 net780
*1139 net781
*1140 net782
*1141 net783
*1142 net784
*1143 net785
*1144 net786
*1145 net787
*1146 net788
*1147 net789
*1148 net79
*1149 net790
*1150 net791
*1151 net792
*1152 net793
*1153 net794
*1154 net795
*1155 net796
*1156 net797
*1157 net798
*1158 net799
*1159 net8
*1160 net80
*1161 net800
*1162 net801
*1163 net802
*1164 net803
*1165 net804
*1166 net805
*1167 net806
*1168 net807
*1169 net808
*1170 net809
*1171 net81
*1172 net810
*1173 net811
*1174 net812
*1175 net813
*1176 net814
*1177 net815
*1178 net816
*1179 net817
*1180 net818
*1181 net819
*1182 net82
*1183 net820
*1184 net821
*1185 net822
*1186 net823
*1187 net824
*1188 net825
*1189 net826
*1190 net827
*1191 net828
*1192 net829
*1193 net83
*1194 net830
*1195 net831
*1196 net832
*1197 net833
*1198 net834
*1199 net835
*1200 net836
*1201 net837
*1202 net838
*1203 net839
*1204 net84
*1205 net840
*1206 net841
*1207 net842
*1208 net843
*1209 net844
*1210 net845
*1211 net846
*1212 net847
*1213 net848
*1214 net849
*1215 net85
*1216 net850
*1217 net851
*1218 net852
*1219 net853
*1220 net854
*1221 net855
*1222 net856
*1223 net857
*1224 net858
*1225 net859
*1226 net86
*1227 net860
*1228 net861
*1229 net862
*1230 net863
*1231 net864
*1232 net865
*1233 net866
*1234 net867
*1235 net868
*1236 net869
*1237 net87
*1238 net870
*1239 net871
*1240 net872
*1241 net873
*1242 net874
*1243 net875
*1244 net876
*1245 net877
*1246 net878
*1247 net879
*1248 net88
*1249 net880
*1250 net881
*1251 net882
*1252 net883
*1253 net884
*1254 net885
*1255 net886
*1256 net887
*1257 net888
*1258 net889
*1259 net89
*1260 net890
*1261 net891
*1262 net892
*1263 net893
*1264 net894
*1265 net895
*1266 net896
*1267 net897
*1268 net898
*1269 net899
*1270 net9
*1271 net90
*1272 net900
*1273 net901
*1274 net902
*1275 net903
*1276 net904
*1277 net905
*1278 net906
*1279 net907
*1280 net908
*1281 net909
*1282 net91
*1283 net910
*1284 net911
*1285 net912
*1286 net913
*1287 net914
*1288 net915
*1289 net916
*1290 net917
*1291 net918
*1292 net919
*1293 net92
*1294 net920
*1295 net921
*1296 net922
*1297 net923
*1298 net924
*1299 net925
*1300 net926
*1301 net927
*1302 net928
*1303 net929
*1304 net93
*1305 net930
*1306 net931
*1307 net932
*1308 net933
*1309 net934
*1310 net935
*1311 net936
*1312 net937
*1313 net938
*1314 net939
*1315 net94
*1316 net940
*1317 net941
*1318 net942
*1319 net943
*1320 net944
*1321 net945
*1322 net946
*1323 net947
*1324 net948
*1325 net949
*1326 net95
*1327 net950
*1328 net951
*1329 net952
*1330 net953
*1331 net954
*1332 net955
*1333 net956
*1334 net957
*1335 net958
*1336 net959
*1337 net96
*1338 net960
*1339 net961
*1340 net962
*1341 net963
*1342 net964
*1343 net965
*1344 net966
*1345 net967
*1346 net968
*1347 net969
*1348 net97
*1349 net970
*1350 net971
*1351 net972
*1352 net973
*1353 net974
*1354 net975
*1355 net976
*1356 net977
*1357 net978
*1358 net979
*1359 net98
*1360 net980
*1361 net981
*1362 net982
*1363 net983
*1364 net984
*1365 net985
*1366 net986
*1367 net987
*1368 net988
*1369 net989
*1370 net99
*1371 net990
*1372 net991
*1373 net992
*1374 net993
*1375 net994
*1376 net995
*1377 net996
*1378 net997
*1379 net998
*1380 net999
*1381 ANTENNA_c100_B
*1382 ANTENNA_c100_X
*1383 ANTENNA_c101_B
*1384 ANTENNA_c102_B
*1385 ANTENNA_c102_C
*1386 ANTENNA_c103_B
*1387 ANTENNA_c105_X
*1388 ANTENNA_c106_D_N
*1389 ANTENNA_c107_C
*1390 ANTENNA_c109_A2
*1391 ANTENNA_c109_S1
*1392 ANTENNA_c110_A
*1393 ANTENNA_c110_B
*1394 ANTENNA_c111_A
*1395 ANTENNA_c111_B
*1396 ANTENNA_c112_A
*1397 ANTENNA_c112_B
*1398 ANTENNA_c113_A
*1399 ANTENNA_c113_B
*1400 ANTENNA_c114_A
*1401 ANTENNA_c114_B
*1402 ANTENNA_c115_A1
*1403 ANTENNA_c115_A2
*1404 ANTENNA_c115_C1
*1405 ANTENNA_c115_D1
*1406 ANTENNA_c116_B
*1407 ANTENNA_c116_C
*1408 ANTENNA_c117_A
*1409 ANTENNA_c117_B
*1410 ANTENNA_c119_X
*1411 ANTENNA_c121_B
*1412 ANTENNA_c122_CLK_N
*1413 ANTENNA_c122_Q
*1414 ANTENNA_c122_RESET_B
*1415 ANTENNA_c122_SET_B
*1416 ANTENNA_c123_B
*1417 ANTENNA_c123_C
*1418 ANTENNA_c124_X
*1419 ANTENNA_c125_A0
*1420 ANTENNA_c125_A3
*1421 ANTENNA_c126_C1
*1422 ANTENNA_c127_A1
*1423 ANTENNA_c127_A3
*1424 ANTENNA_c127_S1
*1425 ANTENNA_c128_B
*1426 ANTENNA_c129_A
*1427 ANTENNA_c130_CLK
*1428 ANTENNA_c130_SCD
*1429 ANTENNA_c131_A3
*1430 ANTENNA_c131_S1
*1431 ANTENNA_c135_D_N
*1432 ANTENNA_c136_A
*1433 ANTENNA_c137_X
*1434 ANTENNA_c138_B
*1435 ANTENNA_c139_A
*1436 ANTENNA_c140_A
*1437 ANTENNA_c140_X
*1438 ANTENNA_c141_C1
*1439 ANTENNA_c141_D1
*1440 ANTENNA_c141_X
*1441 ANTENNA_c142_B
*1442 ANTENNA_c143_A
*1443 ANTENNA_c143_C
*1444 ANTENNA_c144_X
*1445 ANTENNA_c145_A2
*1446 ANTENNA_c146_B
*1447 ANTENNA_c147_B
*1448 ANTENNA_c147_X
*1449 ANTENNA_c148_B
*1450 ANTENNA_c148_C_N
*1451 ANTENNA_c148_D_N
*1452 ANTENNA_c149_X
*1453 ANTENNA_c150_A
*1454 ANTENNA_c150_B
*1455 ANTENNA_c150_X
*1456 ANTENNA_c151_A0
*1457 ANTENNA_c151_A1
*1458 ANTENNA_c151_A3
*1459 ANTENNA_c151_S0
*1460 ANTENNA_c151_S1
*1461 ANTENNA_c151_X
*1462 ANTENNA_c152_S0
*1463 ANTENNA_c152_X
*1464 ANTENNA_c153_A2
*1465 ANTENNA_c153_D1
*1466 ANTENNA_c154_A
*1467 ANTENNA_c154_X
*1468 ANTENNA_c155_A
*1469 ANTENNA_c156_A
*1470 ANTENNA_c156_B
*1471 ANTENNA_c157_B
*1472 ANTENNA_c158_X
*1473 ANTENNA_c159_A
*1474 ANTENNA_c159_B
*1475 ANTENNA_c160_B
*1476 ANTENNA_c161_B
*1477 ANTENNA_c162_B
*1478 ANTENNA_c163_S0
*1479 ANTENNA_c164_A
*1480 ANTENNA_c164_C
*1481 ANTENNA_c165_C_N
*1482 ANTENNA_c165_X
*1483 ANTENNA_c166_A
*1484 ANTENNA_c167_A
*1485 ANTENNA_c168_X
*1486 ANTENNA_c171_S0
*1487 ANTENNA_c171_S1
*1488 ANTENNA_c173_A2
*1489 ANTENNA_c173_S0
*1490 ANTENNA_c174_A
*1491 ANTENNA_c175_A3
*1492 ANTENNA_c175_S0
*1493 ANTENNA_c175_S1
*1494 ANTENNA_c175_X
*1495 ANTENNA_c176_B
*1496 ANTENNA_c176_X
*1497 ANTENNA_c177_B
*1498 ANTENNA_c178_B
*1499 ANTENNA_c178_D_N
*1500 ANTENNA_c178_X
*1501 ANTENNA_c179_A
*1502 ANTENNA_c180_C
*1503 ANTENNA_c181_B
*1504 ANTENNA_c182_B
*1505 ANTENNA_c183_A
*1506 ANTENNA_c183_X
*1507 ANTENNA_c184_A
*1508 ANTENNA_c184_C
*1509 ANTENNA_c185_B
*1510 ANTENNA_c185_X
*1511 ANTENNA_c186_B
*1512 ANTENNA_c187_A
*1513 ANTENNA_c188_S0
*1514 ANTENNA_c188_S1
*1515 ANTENNA_c189_B
*1516 ANTENNA_c189_D_N
*1517 ANTENNA_c190_A
*1518 ANTENNA_c190_D_N
*1519 ANTENNA_c190_X
*1520 ANTENNA_c191_A1
*1521 ANTENNA_c191_A3
*1522 ANTENNA_c191_S1
*1523 ANTENNA_c193_C
*1524 ANTENNA_c193_X
*1525 ANTENNA_c194_A3
*1526 ANTENNA_c195_A3
*1527 ANTENNA_c196_X
*1528 ANTENNA_c197_A1
*1529 ANTENNA_c197_A3
*1530 ANTENNA_c197_S0
*1531 ANTENNA_c198_B
*1532 ANTENNA_c199_S0
*1533 ANTENNA_c200_B
*1534 ANTENNA_c200_C
*1535 ANTENNA_c201_A
*1536 ANTENNA_c201_B
*1537 ANTENNA_c201_C
*1538 ANTENNA_c201_X
*1539 ANTENNA_c202_B
*1540 ANTENNA_c203_X
*1541 ANTENNA_c204_A
*1542 ANTENNA_c204_B
*1543 ANTENNA_c204_X
*1544 ANTENNA_c205_B
*1545 ANTENNA_c206_B
*1546 ANTENNA_c206_C_N
*1547 ANTENNA_c207_A
*1548 ANTENNA_c209_B
*1549 ANTENNA_c209_D_N
*1550 ANTENNA_c210_A
*1551 ANTENNA_c211_A2
*1552 ANTENNA_c211_A3
*1553 ANTENNA_c211_S1
*1554 ANTENNA_c212_B
*1555 ANTENNA_c214_A
*1556 ANTENNA_c216_A2
*1557 ANTENNA_c217_A3
*1558 ANTENNA_c217_S1
*1559 ANTENNA_c218_S1
*1560 ANTENNA_c219_A1
*1561 ANTENNA_c219_A2
*1562 ANTENNA_c220_C
*1563 ANTENNA_c220_X
*1564 ANTENNA_c221_B
*1565 ANTENNA_c224_A
*1566 ANTENNA_c224_B
*1567 ANTENNA_c224_C
*1568 ANTENNA_c225_A1
*1569 ANTENNA_c225_A2
*1570 ANTENNA_c225_A3
*1571 ANTENNA_c226_C
*1572 ANTENNA_c227_C
*1573 ANTENNA_c228_B
*1574 ANTENNA_c229_B
*1575 ANTENNA_c229_C
*1576 ANTENNA_c231_A
*1577 ANTENNA_c231_C_N
*1578 ANTENNA_c231_D_N
*1579 ANTENNA_c231_X
*1580 ANTENNA_c232_B
*1581 ANTENNA_c234_CLK_N
*1582 ANTENNA_c234_Q
*1583 ANTENNA_c234_Q_N
*1584 ANTENNA_c234_RESET_B
*1585 ANTENNA_c234_SET_B
*1586 ANTENNA_c235_A
*1587 ANTENNA_c237_A1
*1588 ANTENNA_c237_A2
*1589 ANTENNA_c238_D
*1590 ANTENNA_c238_SCD
*1591 ANTENNA_c239_A1
*1592 ANTENNA_c239_C1
*1593 ANTENNA_c240_X
*1594 ANTENNA_c241_A0
*1595 ANTENNA_c241_A3
*1596 ANTENNA_c242_A
*1597 ANTENNA_c242_B
*1598 ANTENNA_c243_B
*1599 ANTENNA_c243_C
*1600 ANTENNA_c244_B
*1601 ANTENNA_c244_C
*1602 ANTENNA_c245_C
*1603 ANTENNA_c247_A1
*1604 ANTENNA_c247_A2
*1605 ANTENNA_c247_S1
*1606 ANTENNA_c248_B
*1607 ANTENNA_c248_C
*1608 ANTENNA_c250_A2
*1609 ANTENNA_c250_A3
*1610 ANTENNA_c250_S0
*1611 ANTENNA_c252_S0
*1612 ANTENNA_c252_S1
*1613 ANTENNA_c253_A1
*1614 ANTENNA_c256_A1
*1615 ANTENNA_c257_A0
*1616 ANTENNA_c257_A3
*1617 ANTENNA_c257_S0
*1618 ANTENNA_c258_A1
*1619 ANTENNA_c259_A0
*1620 ANTENNA_c259_A1
*1621 ANTENNA_c259_A2
*1622 ANTENNA_c261_A1
*1623 ANTENNA_c263_A2
*1624 ANTENNA_c263_S0
*1625 ANTENNA_c264_X
*1626 ANTENNA_c265_B
*1627 ANTENNA_c266_A
*1628 ANTENNA_c266_X
*1629 ANTENNA_c267_A
*1630 ANTENNA_c267_B
*1631 ANTENNA_c267_X
*1632 ANTENNA_c268_B
*1633 ANTENNA_c268_X
*1634 ANTENNA_c269_A
*1635 ANTENNA_c269_B
*1636 ANTENNA_c269_X
*1637 ANTENNA_c270_A1
*1638 ANTENNA_c270_A2
*1639 ANTENNA_c270_C1
*1640 ANTENNA_c270_D1
*1641 ANTENNA_c271_B
*1642 ANTENNA_c272_A
*1643 ANTENNA_c272_B
*1644 ANTENNA_c272_C
*1645 ANTENNA_c273_C
*1646 ANTENNA_c274_A
*1647 ANTENNA_c274_B
*1648 ANTENNA_c274_D_N
*1649 ANTENNA_c275_A
*1650 ANTENNA_c276_A
*1651 ANTENNA_c276_B
*1652 ANTENNA_c276_X
*1653 ANTENNA_c278_A2
*1654 ANTENNA_c278_B1
*1655 ANTENNA_c278_D1
*1656 ANTENNA_c279_X
*1657 ANTENNA_c280_A1
*1658 ANTENNA_c280_B1
*1659 ANTENNA_c280_C1
*1660 ANTENNA_c280_X
*1661 ANTENNA_c281_A
*1662 ANTENNA_c282_A2
*1663 ANTENNA_c282_B1
*1664 ANTENNA_c283_S0
*1665 ANTENNA_c283_S1
*1666 ANTENNA_c284_B1
*1667 ANTENNA_c284_C1
*1668 ANTENNA_c284_D1
*1669 ANTENNA_c285_A
*1670 ANTENNA_c285_B
*1671 ANTENNA_c285_C_N
*1672 ANTENNA_c285_D_N
*1673 ANTENNA_c286_B
*1674 ANTENNA_c287_C
*1675 ANTENNA_c287_X
*1676 ANTENNA_c288_A
*1677 ANTENNA_c288_B
*1678 ANTENNA_c289_A
*1679 ANTENNA_c290_B
*1680 ANTENNA_c292_A2
*1681 ANTENNA_c292_D1
*1682 ANTENNA_c293_A2
*1683 ANTENNA_c294_B
*1684 ANTENNA_c295_B
*1685 ANTENNA_c295_X
*1686 ANTENNA_c296_B
*1687 ANTENNA_c296_X
*1688 ANTENNA_c297_B
*1689 ANTENNA_c298_A
*1690 ANTENNA_c299_D_N
*1691 ANTENNA_c301_C
*1692 ANTENNA_c302_X
*1693 ANTENNA_c303_A1
*1694 ANTENNA_c303_B1
*1695 ANTENNA_c303_D1
*1696 ANTENNA_c304_A1
*1697 ANTENNA_c304_S0
*1698 ANTENNA_c305_C
*1699 ANTENNA_c306_A2
*1700 ANTENNA_c306_S1
*1701 ANTENNA_c306_X
*1702 ANTENNA_c307_A2
*1703 ANTENNA_c307_A3
*1704 ANTENNA_c307_S1
*1705 ANTENNA_c307_X
*1706 ANTENNA_c309_X
*1707 ANTENNA_c310_C
*1708 ANTENNA_c311_B
*1709 ANTENNA_c313_B
*1710 ANTENNA_c314_B1
*1711 ANTENNA_c314_D1
*1712 ANTENNA_c314_X
*1713 ANTENNA_c315_A
*1714 ANTENNA_c315_C
*1715 ANTENNA_c317_A
*1716 ANTENNA_c317_B
*1717 ANTENNA_c317_C
*1718 ANTENNA_c319_A
*1719 ANTENNA_c320_A3
*1720 ANTENNA_c320_X
*1721 ANTENNA_c321_A1
*1722 ANTENNA_c321_A2
*1723 ANTENNA_c321_S1
*1724 ANTENNA_c323_B
*1725 ANTENNA_c323_C_N
*1726 ANTENNA_c325_A2
*1727 ANTENNA_c325_A3
*1728 ANTENNA_c325_S0
*1729 ANTENNA_c325_S1
*1730 ANTENNA_c326_A2
*1731 ANTENNA_c326_D1
*1732 ANTENNA_c327_A1
*1733 ANTENNA_c327_S0
*1734 ANTENNA_c328_A1
*1735 ANTENNA_c328_A2
*1736 ANTENNA_c328_A3
*1737 ANTENNA_c328_S1
*1738 ANTENNA_c329_A2
*1739 ANTENNA_c329_A3
*1740 ANTENNA_c331_A
*1741 ANTENNA_c331_B
*1742 ANTENNA_c332_A
*1743 ANTENNA_c332_B
*1744 ANTENNA_c332_C_N
*1745 ANTENNA_c333_B
*1746 ANTENNA_c333_C
*1747 ANTENNA_c334_A
*1748 ANTENNA_c335_C
*1749 ANTENNA_c336_RESET_B
*1750 ANTENNA_c337_B
*1751 ANTENNA_c337_C
*1752 ANTENNA_c338_A0
*1753 ANTENNA_c338_A2
*1754 ANTENNA_c339_A2
*1755 ANTENNA_c339_A3
*1756 ANTENNA_c339_S0
*1757 ANTENNA_c340_A2
*1758 ANTENNA_c340_A3
*1759 ANTENNA_c340_S1
*1760 ANTENNA_c341_B
*1761 ANTENNA_c342_A1
*1762 ANTENNA_c346_B
*1763 ANTENNA_c347_B1
*1764 ANTENNA_c348_S0
*1765 ANTENNA_c348_S1
*1766 ANTENNA_c352_B
*1767 ANTENNA_c353_A2
*1768 ANTENNA_c353_A3
*1769 ANTENNA_c353_S0
*1770 ANTENNA_c353_S1
*1771 ANTENNA_c354_A
*1772 ANTENNA_c355_D_N
*1773 ANTENNA_c357_A
*1774 ANTENNA_c357_X
*1775 ANTENNA_c359_RESET_B
*1776 ANTENNA_c360_B
*1777 ANTENNA_c360_C
*1778 ANTENNA_c361_A2
*1779 ANTENNA_c361_B1
*1780 ANTENNA_c361_D1
*1781 ANTENNA_c364_SCE
*1782 ANTENNA_c365_A
*1783 ANTENNA_c367_A1
*1784 ANTENNA_c367_C1
*1785 ANTENNA_c367_D1
*1786 ANTENNA_c368_A3
*1787 ANTENNA_c368_S0
*1788 ANTENNA_c368_S1
*1789 ANTENNA_c369_RESET_B
*1790 ANTENNA_c369_SCE
*1791 ANTENNA_c370_B1
*1792 ANTENNA_c370_D1
*1793 ANTENNA_c371_B1
*1794 ANTENNA_c372_S0
*1795 ANTENNA_c372_S1
*1796 ANTENNA_c373_A2
*1797 ANTENNA_c373_S0
*1798 ANTENNA_c374_A
*1799 ANTENNA_c374_C_N
*1800 ANTENNA_c374_D_N
*1801 ANTENNA_c375_A
*1802 ANTENNA_c375_B
*1803 ANTENNA_c375_C_N
*1804 ANTENNA_c376_A
*1805 ANTENNA_c377_D
*1806 ANTENNA_c377_RESET_B
*1807 ANTENNA_c378_B
*1808 ANTENNA_c378_C_N
*1809 ANTENNA_c378_D_N
*1810 ANTENNA_c379_B
*1811 ANTENNA_c380_A
*1812 ANTENNA_c380_B
*1813 ANTENNA_c380_C_N
*1814 ANTENNA_c381_C
*1815 ANTENNA_c382_C_N
*1816 ANTENNA_c383_A0
*1817 ANTENNA_c385_D_N
*1818 ANTENNA_c386_D_N
*1819 ANTENNA_c387_A1
*1820 ANTENNA_c387_A2
*1821 ANTENNA_c388_RESET_B
*1822 ANTENNA_c389_A
*1823 ANTENNA_c391_B
*1824 ANTENNA_c391_D_N
*1825 ANTENNA_c392_A1
*1826 ANTENNA_c392_A2
*1827 ANTENNA_c392_S0
*1828 ANTENNA_c393_A1
*1829 ANTENNA_c393_S1
*1830 ANTENNA_c393_X
*1831 ANTENNA_c394_B1
*1832 ANTENNA_c394_D1
*1833 ANTENNA_c396_B
*1834 ANTENNA_c398_A
*1835 ANTENNA_c399_A0
*1836 ANTENNA_c399_A1
*1837 ANTENNA_c400_A