*SPEF "ieee 1481-1999"
*DESIGN "netlist_1"
*DATE "23:51:03 Saturday August 17, 2024"
*VENDOR "The OpenROAD Project"
*PROGRAM "OpenROAD"
*VERSION "d423155d69de7f683a23f6916ead418a615ad4ad"
*DESIGN_FLOW "NAME_SCOPE LOCAL" "PIN_CAP NONE"
*DIVIDER /
*DELIMITER :
*BUS_DELIMITER []
*T_UNIT 1 NS
*C_UNIT 1 PF
*R_UNIT 1 OHM
*L_UNIT 1 HENRY

*NAME_MAP
*3 clk
*4 in0
*5 in1
*6 in10
*7 in11
*8 in12
*9 in13
*10 in14
*11 in15
*12 in16
*13 in17
*14 in18
*15 in19
*16 in2
*17 in20
*18 in21
*19 in22
*20 in23
*21 in24
*22 in25
*23 in26
*24 in27
*25 in28
*26 in29
*27 in3
*28 in30
*29 in31
*30 in32
*31 in33
*32 in34
*33 in35
*34 in36
*35 in37
*36 in38
*37 in39
*38 in4
*39 in40
*40 in41
*41 in42
*42 in43
*43 in44
*44 in45
*45 in46
*46 in47
*47 in48
*48 in49
*49 in5
*50 in50
*51 in51
*52 in52
*53 in53
*54 in54
*55 in55
*56 in56
*57 in57
*58 in58
*59 in59
*60 in6
*61 in60
*62 in61
*63 in7
*64 in8
*65 in9
*66 out0
*67 out1
*68 out10
*69 out11
*70 out12
*71 out13
*72 out14
*73 out15
*74 out16
*75 out17
*76 out18
*77 out19
*78 out2
*79 out20
*80 out21
*81 out22
*82 out23
*83 out24
*84 out25
*85 out26
*86 out27
*87 out28
*88 out29
*89 out3
*90 out30
*91 out31
*92 out32
*93 out33
*94 out34
*95 out35
*96 out36
*97 out37
*98 out38
*99 out39
*100 out4
*101 out40
*102 out41
*103 out42
*104 out43
*105 out44
*106 out45
*107 out46
*108 out47
*109 out48
*110 out49
*111 out5
*112 out50
*113 out51
*114 out52
*115 out53
*116 out54
*117 out55
*118 out56
*119 out57
*120 out58
*121 out59
*122 out6
*123 out60
*124 out61
*125 out7
*126 out8
*127 out9
*128 rst
*129 clknet_0_clk
*130 clknet_0_net103
*131 clknet_0_net217
*132 clknet_0_net218
*133 clknet_0_net219
*134 clknet_0_net223
*135 clknet_0_net225
*136 clknet_0_net228
*137 clknet_0_net230
*138 clknet_0_net231
*139 clknet_0_net253
*140 clknet_0_net257
*141 clknet_0_net264
*142 clknet_0_net362
*143 clknet_0_net373
*144 clknet_0_net380
*145 clknet_0_net447
*146 clknet_0_net451
*147 clknet_0_net481
*148 clknet_0_net484
*149 clknet_0_net486
*150 clknet_0_net487
*151 clknet_0_net489
*152 clknet_0_net490
*153 clknet_0_net498
*154 clknet_0_net506
*155 clknet_0_net507
*156 clknet_0_net510
*157 clknet_0_net514
*158 clknet_0_net523
*159 clknet_0_net541
*160 clknet_0_net552
*161 clknet_0_net554
*162 clknet_0_net555
*163 clknet_0_net556
*164 clknet_0_net564
*165 clknet_0_net565
*166 clknet_0_net594
*167 clknet_0_net595
*168 clknet_0_net596
*169 clknet_0_net597
*170 clknet_0_net603
*171 clknet_0_net826
*172 clknet_0_net828
*173 clknet_0_net839
*174 clknet_1_0__leaf_net103
*175 clknet_1_0__leaf_net217
*176 clknet_1_0__leaf_net218
*177 clknet_1_0__leaf_net219
*178 clknet_1_0__leaf_net223
*179 clknet_1_0__leaf_net225
*180 clknet_1_0__leaf_net228
*181 clknet_1_0__leaf_net230
*182 clknet_1_0__leaf_net231
*183 clknet_1_0__leaf_net253
*184 clknet_1_0__leaf_net257
*185 clknet_1_0__leaf_net264
*186 clknet_1_0__leaf_net362
*187 clknet_1_0__leaf_net373
*188 clknet_1_0__leaf_net380
*189 clknet_1_0__leaf_net447
*190 clknet_1_0__leaf_net451
*191 clknet_1_0__leaf_net481
*192 clknet_1_0__leaf_net484
*193 clknet_1_0__leaf_net486
*194 clknet_1_0__leaf_net487
*195 clknet_1_0__leaf_net489
*196 clknet_1_0__leaf_net490
*197 clknet_1_0__leaf_net498
*198 clknet_1_0__leaf_net506
*199 clknet_1_0__leaf_net507
*200 clknet_1_0__leaf_net510
*201 clknet_1_0__leaf_net514
*202 clknet_1_0__leaf_net523
*203 clknet_1_0__leaf_net541
*204 clknet_1_0__leaf_net552
*205 clknet_1_0__leaf_net554
*206 clknet_1_0__leaf_net555
*207 clknet_1_0__leaf_net556
*208 clknet_1_0__leaf_net564
*209 clknet_1_0__leaf_net565
*210 clknet_1_0__leaf_net594
*211 clknet_1_0__leaf_net595
*212 clknet_1_0__leaf_net596
*213 clknet_1_0__leaf_net597
*214 clknet_1_0__leaf_net603
*215 clknet_1_0__leaf_net826
*216 clknet_1_0__leaf_net828
*217 clknet_1_0__leaf_net839
*218 clknet_1_1__leaf_net103
*219 clknet_1_1__leaf_net217
*220 clknet_1_1__leaf_net218
*221 clknet_1_1__leaf_net219
*222 clknet_1_1__leaf_net223
*223 clknet_1_1__leaf_net225
*224 clknet_1_1__leaf_net228
*225 clknet_1_1__leaf_net230
*226 clknet_1_1__leaf_net231
*227 clknet_1_1__leaf_net253
*228 clknet_1_1__leaf_net257
*229 clknet_1_1__leaf_net264
*230 clknet_1_1__leaf_net362
*231 clknet_1_1__leaf_net373
*232 clknet_1_1__leaf_net380
*233 clknet_1_1__leaf_net447
*234 clknet_1_1__leaf_net451
*235 clknet_1_1__leaf_net481
*236 clknet_1_1__leaf_net484
*237 clknet_1_1__leaf_net486
*238 clknet_1_1__leaf_net487
*239 clknet_1_1__leaf_net489
*240 clknet_1_1__leaf_net490
*241 clknet_1_1__leaf_net498
*242 clknet_1_1__leaf_net506
*243 clknet_1_1__leaf_net507
*244 clknet_1_1__leaf_net510
*245 clknet_1_1__leaf_net514
*246 clknet_1_1__leaf_net523
*247 clknet_1_1__leaf_net541
*248 clknet_1_1__leaf_net552
*249 clknet_1_1__leaf_net554
*250 clknet_1_1__leaf_net555
*251 clknet_1_1__leaf_net556
*252 clknet_1_1__leaf_net564
*253 clknet_1_1__leaf_net565
*254 clknet_1_1__leaf_net594
*255 clknet_1_1__leaf_net595
*256 clknet_1_1__leaf_net596
*257 clknet_1_1__leaf_net597
*258 clknet_1_1__leaf_net603
*259 clknet_1_1__leaf_net826
*260 clknet_1_1__leaf_net828
*261 clknet_1_1__leaf_net839
*262 clknet_2_0__leaf_clk
*263 clknet_2_1__leaf_clk
*264 clknet_2_2__leaf_clk
*265 clknet_2_3__leaf_clk
*266 clknet_leaf_0_clk
*267 clknet_leaf_10_clk
*268 clknet_leaf_11_clk
*269 clknet_leaf_13_clk
*270 clknet_leaf_14_clk
*271 clknet_leaf_15_clk
*272 clknet_leaf_16_clk
*273 clknet_leaf_17_clk
*274 clknet_leaf_18_clk
*275 clknet_leaf_19_clk
*276 clknet_leaf_1_clk
*277 clknet_leaf_20_clk
*278 clknet_leaf_21_clk
*279 clknet_leaf_22_clk
*280 clknet_leaf_23_clk
*281 clknet_leaf_24_clk
*282 clknet_leaf_25_clk
*283 clknet_leaf_26_clk
*284 clknet_leaf_27_clk
*285 clknet_leaf_28_clk
*286 clknet_leaf_29_clk
*287 clknet_leaf_2_clk
*288 clknet_leaf_30_clk
*289 clknet_leaf_31_clk
*290 clknet_leaf_32_clk
*291 clknet_leaf_33_clk
*292 clknet_leaf_34_clk
*293 clknet_leaf_3_clk
*294 clknet_leaf_4_clk
*295 clknet_leaf_5_clk
*296 clknet_leaf_6_clk
*297 clknet_leaf_7_clk
*298 clknet_leaf_8_clk
*299 clknet_leaf_9_clk
*300 net0
*301 net1
*302 net10
*303 net100
*304 net101
*305 net102
*306 net103
*307 net104
*308 net105
*309 net106
*310 net107
*311 net108
*312 net109
*313 net11
*314 net110
*315 net111
*316 net112
*317 net113
*318 net114
*319 net115
*320 net116
*321 net117
*322 net118
*323 net119
*324 net12
*325 net120
*326 net121
*327 net122
*328 net123
*329 net124
*330 net125
*331 net126
*332 net127
*333 net128
*334 net129
*335 net13
*336 net130
*337 net131
*338 net132
*339 net133
*340 net134
*341 net135
*342 net136
*343 net137
*344 net138
*345 net139
*346 net14
*347 net140
*348 net141
*349 net142
*350 net143
*351 net144
*352 net145
*353 net146
*354 net147
*355 net148
*356 net149
*357 net15
*358 net150
*359 net151
*360 net152
*361 net153
*362 net154
*363 net155
*364 net156
*365 net157
*366 net158
*367 net159
*368 net16
*369 net160
*370 net161
*371 net162
*372 net163
*373 net164
*374 net165
*375 net166
*376 net167
*377 net168
*378 net169
*379 net17
*380 net170
*381 net171
*382 net172
*383 net173
*384 net174
*385 net175
*386 net176
*387 net177
*388 net178
*389 net179
*390 net18
*391 net180
*392 net181
*393 net182
*394 net183
*395 net184
*396 net185
*397 net186
*398 net187
*399 net188
*400 net189
*401 net19
*402 net190
*403 net191
*404 net192
*405 net193
*406 net194
*407 net195
*408 net196
*409 net197
*410 net198
*411 net199
*412 net2
*413 net20
*414 net200
*415 net201
*416 net202
*417 net203
*418 net204
*419 net205
*420 net206
*421 net207
*422 net208
*423 net209
*424 net21
*425 net210
*426 net211
*427 net212
*428 net213
*429 net214
*430 net215
*431 net216
*432 net217
*433 net218
*434 net219
*435 net22
*436 net220
*437 net221
*438 net222
*439 net223
*440 net224
*441 net225
*442 net226
*443 net227
*444 net228
*445 net229
*446 net23
*447 net230
*448 net231
*449 net232
*450 net233
*451 net234
*452 net235
*453 net236
*454 net237
*455 net238
*456 net239
*457 net24
*458 net240
*459 net241
*460 net242
*461 net243
*462 net244
*463 net245
*464 net246
*465 net247
*466 net248
*467 net249
*468 net25
*469 net250
*470 net251
*471 net252
*472 net253
*473 net254
*474 net255
*475 net256
*476 net257
*477 net258
*478 net259
*479 net26
*480 net260
*481 net261
*482 net262
*483 net263
*484 net264
*485 net265
*486 net266
*487 net267
*488 net268
*489 net269
*490 net27
*491 net270
*492 net271
*493 net272
*494 net273
*495 net274
*496 net275
*497 net276
*498 net277
*499 net278
*500 net279
*501 net28
*502 net280
*503 net281
*504 net282
*505 net283
*506 net284
*507 net285
*508 net286
*509 net287
*510 net288
*511 net289
*512 net29
*513 net290
*514 net291
*515 net292
*516 net293
*517 net294
*518 net295
*519 net296
*520 net297
*521 net298
*522 net299
*523 net3
*524 net30
*525 net300
*526 net301
*527 net302
*528 net303
*529 net304
*530 net305
*531 net306
*532 net307
*533 net308
*534 net309
*535 net31
*536 net310
*537 net311
*538 net312
*539 net313
*540 net314
*541 net315
*542 net316
*543 net317
*544 net318
*545 net319
*546 net32
*547 net320
*548 net321
*549 net322
*550 net323
*551 net324
*552 net325
*553 net326
*554 net327
*555 net328
*556 net329
*557 net33
*558 net330
*559 net331
*560 net332
*561 net333
*562 net334
*563 net335
*564 net336
*565 net337
*566 net338
*567 net339
*568 net34
*569 net340
*570 net341
*571 net342
*572 net343
*573 net344
*574 net345
*575 net346
*576 net347
*577 net348
*578 net349
*579 net35
*580 net350
*581 net351
*582 net352
*583 net353
*584 net354
*585 net355
*586 net356
*587 net357
*588 net358
*589 net359
*590 net36
*591 net360
*592 net361
*593 net362
*594 net363
*595 net364
*596 net365
*597 net366
*598 net367
*599 net368
*600 net369
*601 net37
*602 net370
*603 net371
*604 net372
*605 net373
*606 net374
*607 net375
*608 net376
*609 net377
*610 net378
*611 net379
*612 net38
*613 net380
*614 net381
*615 net382
*616 net383
*617 net384
*618 net385
*619 net386
*620 net387
*621 net388
*622 net389
*623 net39
*624 net390
*625 net391
*626 net392
*627 net393
*628 net394
*629 net395
*630 net396
*631 net397
*632 net398
*633 net399
*634 net4
*635 net40
*636 net400
*637 net401
*638 net402
*639 net403
*640 net404
*641 net405
*642 net406
*643 net407
*644 net408
*645 net409
*646 net41
*647 net410
*648 net411
*649 net412
*650 net413
*651 net414
*652 net415
*653 net416
*654 net417
*655 net418
*656 net419
*657 net42
*658 net420
*659 net421
*660 net422
*661 net423
*662 net424
*663 net425
*664 net426
*665 net427
*666 net428
*667 net429
*668 net43
*669 net430
*670 net431
*671 net432
*672 net433
*673 net434
*674 net435
*675 net436
*676 net437
*677 net438
*678 net439
*679 net44
*680 net440
*681 net441
*682 net442
*683 net443
*684 net444
*685 net445
*686 net446
*687 net447
*688 net448
*689 net449
*690 net45
*691 net450
*692 net451
*693 net452
*694 net453
*695 net454
*696 net455
*697 net456
*698 net457
*699 net458
*700 net459
*701 net46
*702 net460
*703 net461
*704 net462
*705 net463
*706 net464
*707 net465
*708 net466
*709 net467
*710 net468
*711 net469
*712 net47
*713 net470
*714 net471
*715 net472
*716 net473
*717 net474
*718 net475
*719 net476
*720 net477
*721 net478
*722 net479
*723 net48
*724 net480
*725 net481
*726 net482
*727 net483
*728 net484
*729 net485
*730 net486
*731 net487
*732 net488
*733 net489
*734 net49
*735 net490
*736 net491
*737 net492
*738 net493
*739 net494
*740 net495
*741 net496
*742 net497
*743 net498
*744 net499
*745 net5
*746 net50
*747 net500
*748 net501
*749 net502
*750 net503
*751 net504
*752 net505
*753 net506
*754 net507
*755 net508
*756 net509
*757 net51
*758 net510
*759 net511
*760 net512
*761 net513
*762 net514
*763 net515
*764 net516
*765 net517
*766 net518
*767 net519
*768 net52
*769 net520
*770 net521
*771 net522
*772 net523
*773 net524
*774 net525
*775 net526
*776 net527
*777 net528
*778 net529
*779 net53
*780 net530
*781 net531
*782 net532
*783 net533
*784 net534
*785 net535
*786 net536
*787 net537
*788 net538
*789 net539
*790 net54
*791 net540
*792 net541
*793 net542
*794 net543
*795 net544
*796 net545
*797 net546
*798 net547
*799 net548
*800 net549
*801 net55
*802 net550
*803 net551
*804 net552
*805 net553
*806 net554
*807 net555
*808 net556
*809 net557
*810 net558
*811 net559
*812 net56
*813 net560
*814 net561
*815 net562
*816 net563
*817 net564
*818 net565
*819 net566
*820 net567
*821 net568
*822 net569
*823 net57
*824 net570
*825 net571
*826 net572
*827 net573
*828 net574
*829 net575
*830 net576
*831 net577
*832 net578
*833 net579
*834 net58
*835 net580
*836 net581
*837 net582
*838 net583
*839 net584
*840 net585
*841 net586
*842 net587
*843 net588
*844 net589
*845 net59
*846 net590
*847 net591
*848 net592
*849 net593
*850 net594
*851 net595
*852 net596
*853 net597
*854 net598
*855 net599
*856 net6
*857 net60
*858 net600
*859 net601
*860 net602
*861 net603
*862 net604
*863 net605
*864 net606
*865 net607
*866 net608
*867 net609
*868 net61
*869 net610
*870 net611
*871 net612
*872 net613
*873 net614
*874 net615
*875 net616
*876 net617
*877 net618
*878 net619
*879 net62
*880 net620
*881 net621
*882 net622
*883 net623
*884 net624
*885 net625
*886 net626
*887 net627
*888 net628
*889 net629
*890 net63
*891 net630
*892 net631
*893 net632
*894 net633
*895 net634
*896 net635
*897 net636
*898 net637
*899 net638
*900 net639
*901 net64
*902 net640
*903 net641
*904 net642
*905 net643
*906 net644
*907 net645
*908 net646
*909 net647
*910 net648
*911 net649
*912 net65
*913 net650
*914 net651
*915 net652
*916 net653
*917 net654
*918 net655
*919 net656
*920 net657
*921 net658
*922 net659
*923 net66
*924 net660
*925 net661
*926 net662
*927 net663
*928 net664
*929 net665
*930 net666
*931 net667
*932 net668
*933 net669
*934 net67
*935 net670
*936 net671
*937 net672
*938 net673
*939 net674
*940 net675
*941 net676
*942 net677
*943 net678
*944 net679
*945 net68
*946 net680
*947 net681
*948 net682
*949 net683
*950 net684
*951 net685
*952 net686
*953 net687
*954 net688
*955 net689
*956 net69
*957 net690
*958 net691
*959 net692
*960 net693
*961 net694
*962 net695
*963 net696
*964 net697
*965 net698
*966 net699
*967 net7
*968 net70
*969 net700
*970 net701
*971 net702
*972 net703
*973 net704
*974 net705
*975 net706
*976 net707
*977 net708
*978 net709
*979 net71
*980 net710
*981 net711
*982 net712
*983 net713
*984 net714
*985 net715
*986 net716
*987 net717
*988 net718
*989 net719
*990 net72
*991 net720
*992 net721
*993 net722
*994 net723
*995 net724
*996 net725
*997 net726
*998 net727
*999 net728
*1000 net729
*1001 net73
*1002 net730
*1003 net731
*1004 net732
*1005 net733
*1006 net734
*1007 net735
*1008 net736
*1009 net737
*1010 net738
*1011 net739
*1012 net74
*1013 net740
*1014 net741
*1015 net742
*1016 net743
*1017 net744
*1018 net745
*1019 net746
*1020 net747
*1021 net748
*1022 net749
*1023 net75
*1024 net750
*1025 net751
*1026 net752
*1027 net753
*1028 net754
*1029 net755
*1030 net756
*1031 net757
*1032 net758
*1033 net759
*1034 net76
*1035 net760
*1036 net761
*1037 net762
*1038 net763
*1039 net764
*1040 net765
*1041 net766
*1042 net767
*1043 net768
*1044 net769
*1045 net77
*1046 net770
*1047 net771
*1048 net772
*1049 net773
*1050 net774
*1051 net775
*1052 net776
*1053 net777
*1054 net778
*1055 net779
*1056 net78
*1057 net780
*1058 net781
*1059 net782
*1060 net783
*1061 net784
*1062 net785
*1063 net786
*1064 net787
*1065 net788
*1066 net789
*1067 net79
*1068 net790
*1069 net791
*1070 net792
*1071 net793
*1072 net794
*1073 net795
*1074 net796
*1075 net797
*1076 net798
*1077 net799
*1078 net8
*1079 net80
*1080 net800
*1081 net801
*1082 net802
*1083 net803
*1084 net804
*1085 net805
*1086 net806
*1087 net807
*1088 net808
*1089 net809
*1090 net81
*1091 net810
*1092 net811
*1093 net812
*1094 net813
*1095 net814
*1096 net815
*1097 net816
*1098 net817
*1099 net818
*1100 net819
*1101 net82
*1102 net820
*1103 net821
*1104 net822
*1105 net823
*1106 net824
*1107 net825
*1108 net826
*1109 net827
*1110 net828
*1111 net829
*1112 net83
*1113 net830
*1114 net831
*1115 net832
*1116 net833
*1117 net834
*1118 net835
*1119 net836
*1120 net837
*1121 net838
*1122 net839
*1123 net84
*1124 net840
*1125 net841
*1126 net842
*1127 net843
*1128 net844
*1129 net845
*1130 net846
*1131 net847
*1132 net848
*1133 net849
*1134 net85
*1135 net850
*1136 net851
*1137 net852
*1138 net853
*1139 net854
*1140 net855
*1141 net856
*1142 net857
*1143 net858
*1144 net859
*1145 net86
*1146 net860
*1147 net861
*1148 net862
*1149 net863
*1150 net864
*1151 net865
*1152 net866
*1153 net867
*1154 net868
*1155 net869
*1156 net87
*1157 net870
*1158 net871
*1159 net872
*1160 net873
*1161 net874
*1162 net875
*1163 net876
*1164 net877
*1165 net878
*1166 net879
*1167 net88
*1168 net880
*1169 net881
*1170 net882
*1171 net883
*1172 net884
*1173 net885
*1174 net886
*1175 net887
*1176 net888
*1177 net889
*1178 net89
*1179 net890
*1180 net891
*1181 net892
*1182 net893
*1183 net894
*1184 net895
*1185 net896
*1186 net897
*1187 net898
*1188 net899
*1189 net9
*1190 net90
*1191 net900
*1192 net901
*1193 net902
*1194 net903
*1195 net904
*1196 net905
*1197 net906
*1198 net907
*1199 net908
*1200 net909
*1201 net91
*1202 net910
*1203 net911
*1204 net912
*1205 net913
*1206 net914
*1207 net915
*1208 net916
*1209 net917
*1210 net918
*1211 net919
*1212 net92
*1213 net920
*1214 net921
*1215 net922
*1216 net923
*1217 net924
*1218 net925
*1219 net926
*1220 net927
*1221 net928
*1222 net929
*1223 net93
*1224 net930
*1225 net931
*1226 net932
*1227 net933
*1228 net934
*1229 net935
*1230 net936
*1231 net937
*1232 net938
*1233 net939
*1234 net94
*1235 net940
*1236 net941
*1237 net942
*1238 net943
*1239 net944
*1240 net945
*1241 net946
*1242 net947
*1243 net948
*1244 net949
*1245 net95
*1246 net950
*1247 net951
*1248 net952
*1249 net953
*1250 net954
*1251 net955
*1252 net956
*1253 net957
*1254 net958
*1255 net959
*1256 net96
*1257 net960
*1258 net961
*1259 net962
*1260 net963
*1261 net964
*1262 net965
*1263 net966
*1264 net967
*1265 net968
*1266 net969
*1267 net97
*1268 net970
*1269 net98
*1270 net99
*1271 ANTENNA_c127_X
*1272 ANTENNA_c129_B1_N
*1273 ANTENNA_c130_SET_B
*1274 ANTENNA_c133_SET_B
*1275 ANTENNA_c145_A2
*1276 ANTENNA_c150_A2
*1277 ANTENNA_c200_CLK
*1278 ANTENNA_c210_X
*1279 ANTENNA_c211_B
*1280 ANTENNA_c221_SCD
*1281 ANTENNA_c222_SCE
*1282 ANTENNA_c224_S0
*1283 ANTENNA_c228_SCD
*1284 ANTENNA_c250_CLK
*1285 ANTENNA_c273_A
*1286 ANTENNA_c297_Y
*1287 ANTENNA_c307_CLK
*1288 ANTENNA_c309_X
*1289 ANTENNA_c312_A1
*1290 ANTENNA_c313_CLK
*1291 ANTENNA_c313_SCD
*1292 ANTENNA_c315_A
*1293 ANTENNA_c318_CLK
*1294 ANTENNA_c320_CLK_N
*1295 ANTENNA_c321_CLK
*1296 ANTENNA_c322_CLK
*1297 ANTENNA_c323_CLK
*1298 ANTENNA_c326_CLK_N
*1299 ANTENNA_c326_SET_B
*1300 ANTENNA_c328_CLK
*1301 ANTENNA_c336_A
*1302 ANTENNA_c337_D
*1303 ANTENNA_c346_Q
*1304 ANTENNA_c353_B
*1305 ANTENNA_c377_SCD
*1306 ANTENNA_c378_A
*1307 ANTENNA_c384_A
*1308 ANTENNA_c385_SCD
*1309 ANTENNA_c393_SET_B
*1310 ANTENNA_c396_S0
*1311 ANTENNA_c399_B
*1312 ANTENNA_c407_S0
*1313 ANTENNA_c435_A1
*1314 ANTENNA_c509_SCE
*1315 ANTENNA_c510_SCE
*1316 ANTENNA_c515_SCE
*1317 ANTENNA_c516_SCE
*1318 ANTENNA_c521_S1
*1319 ANTENNA_c542_SET_B
*1320 ANTENNA_c556_X
*1321 ANTENNA_c558_B
*1322 ANTENNA_c559_SCE
*1323 ANTENNA_c563_B1
*1324 ANTENNA_c565_S0
*1325 ANTENNA_c569_A
*1326 ANTENNA_c604_A1
*1327 ANTENNA_c632_D
*1328 ANTENNA_c674_B
*1329 ANTENNA_c687_SET_B
*1330 ANTENNA_c692_B1_N
*1331 ANTENNA_c83_X
*1332 ANTENNA_clkbuf_0_clk_A
*1333 ANTENNA_clkbuf_0_clk_X
*1334 ANTENNA_clkbuf_2_0__f_clk_A
*1335 ANTENNA_clkbuf_2_0__f_clk_X
*1336 ANTENNA_clkbuf_2_1__f_clk_A
*1337 ANTENNA_clkbuf_2_1__f_clk_X
*1338 ANTENNA_clkbuf_2_2__f_clk_A
*1339 ANTENNA_clkbuf_2_2__f_clk_X
*1340 ANTENNA_clkbuf_2_3__f_clk_A
*1341 ANTENNA_clkbuf_2_3__f_clk_X
*1342 ANTENNA_clkbuf_leaf_0_clk_A
*1343 ANTENNA_clkbuf_leaf_10_clk_A
*1344 ANTENNA_clkbuf_leaf_11_clk_A
*1345 ANTENNA_clkbuf_leaf_13_clk_A
*1346 ANTENNA_clkbuf_leaf_14_clk_A
*1347 ANTENNA_clkbuf_leaf_15_clk_A
*1348 ANTENNA_clkbuf_leaf_16_clk_A
*1349 ANTENNA_clkbuf_leaf_17_clk_A
*1350 ANTENNA_clkbuf_leaf_18_clk_A
*1351 ANTENNA_clkbuf_leaf_19_clk_A
*1352 ANTENNA_clkbuf_leaf_1_clk_A
*1353 ANTENNA_clkbuf_leaf_20_clk_A
*1354 ANTENNA_clkbuf_leaf_21_clk_A
*1355 ANTENNA_clkbuf_leaf_22_clk_A
*1356 ANTENNA_clkbuf_leaf_23_clk_A
*1357 ANTENNA_clkbuf_leaf_24_clk_A
*1358 ANTENNA_clkbuf_leaf_25_clk_A
*1359 ANTENNA_clkbuf_leaf_26_clk_A
*1360 ANTENNA_clkbuf_leaf_27_clk_A
*1361 ANTENNA_clkbuf_leaf_28_clk_A
*1362 ANTENNA_clkbuf_leaf_29_clk_A
*1363 ANTENNA_clkbuf_leaf_2_clk_A
*1364 ANTENNA_clkbuf_leaf_2_clk_X
*1365 ANTENNA_clkbuf_leaf_30_clk_A
*1366 ANTENNA_clkbuf_leaf_31_clk_A
*1367 ANTENNA_clkbuf_leaf_32_clk_A
*1368 ANTENNA_clkbuf_leaf_33_clk_A
*1369 ANTENNA_clkbuf_leaf_34_clk_A
*1370 ANTENNA_clkbuf_leaf_3_clk_A
*1371 ANTENNA_clkbuf_leaf_4_clk_A
*1372 ANTENNA_clkbuf_leaf_5_clk_A
*1373 ANTENNA_clkbuf_leaf_6_clk_A
*1374 ANTENNA_clkbuf_leaf_7_clk_A
*1375 ANTENNA_clkbuf_leaf_8_clk_A
*1376 ANTENNA_clkbuf_leaf_9_clk_A
*1377 ANTENNA_fanout87_X
*1378 ANTENNA_hold5_A
*1379 ANTENNA_input10_A
*1380 ANTENNA_input11_A
*1381 ANTENNA_input12_A
*1382 ANTENNA_input13_A
*1383 ANTENNA_input14_A
*1384 ANTENNA_input15_A
*1385 ANTENNA_input16_A
*1386 ANTENNA_input16_X
*1387 ANTENNA_input17_A
*1388 ANTENNA_input18_A
*1389 ANTENNA_input19_A
*1390 ANTENNA_input1_A
*1391 ANTENNA_input20_A
*1392 ANTENNA_input20_X
*1393 ANTENNA_input21_A
*1394 ANTENNA_input22_A
*1395 ANTENNA_input23_A
*1396 ANTENNA_input24_A
*1397 ANTENNA_input25_A
*1398 ANTENNA_input26_A
*1399 ANTENNA_input27_A
*1400 ANTENNA_input28_A
*1401 ANTENNA_input29_A
*1402 ANTENNA_input2_A
*1403 ANTENNA_input30_A
*1404 ANTENNA_input31_A
*1405 ANTENNA_input32_A
*1406 ANTENNA_input33_A
*1407 ANTENNA_input34_A
*1408 ANTENNA_input35_A
*1409 ANTENNA_input36_A
*1410 ANTENNA_input37_A
*1411 ANTENNA_input38_A
*1412 ANTENNA_input39_A
*1413 ANTENNA_input3_A
*1414 ANTENNA_input40_A
*1415 ANTENNA_input41_A
*1416 ANTENNA_input42_A
*1417 ANTENNA_input43_A
*1418 ANTENNA_input44_A
*1419 ANTENNA_input45_A
*1420 ANTENNA_input46_A
*1421 ANTENNA_input47_A
*1422 ANTENNA_input48_A
*1423 ANTENNA_input49_A
*1424 ANTENNA_input4_A
*1425 ANTENNA_input50_A
*1426 ANTENNA_input51_A
*1427 ANTENNA_input52_A
*1428 ANTENNA_input53_A
*1429 ANTENNA_input54_A
*1430 ANTENNA_input56_A
*1431 ANTENNA_input57_A
*1432 ANTENNA_input58_A
*1433 ANTENNA_input59_A
*1434 ANTENNA_input5_A
*1435 ANTENNA_input60_A
*1436 ANTENNA_input61_A
*1437 ANTENNA_input6_A
*1438 ANTENNA_input7_A
*1439 ANTENNA_input8_A
*1440 ANTENNA_input9_A
*1441 ANTENNA_merge737_RESET_B
*1442 ANTENNA_merge742_RESET_B
*1443 ANTENNA_merge743_D
*1444 ANTENNA_merge747_SCD
*1445 ANTENNA_merge748_DE
*1446 ANTENNA_merge751_D
*1447 ANTENNA_merge755_CLK_N
*1448 ANTENNA_merge755_D
*1449 ANTENNA_output76_A
*1450 ANTENNA_output79_A
*1451 ANTENNA_s770_GATE_N
*1452 ANTENNA_s772_SLEEP_B
*1453 ANTENNA_s777_CLK
*1454 FILLER_0_0_109
*1455 FILLER_0_0_113
*1456 FILLER_0_0_125
*1457 FILLER_0_0_137
*1458 FILLER_0_0_141
*1459 FILLER_0_0_15
*1460 FILLER_0_0_153
*1461 FILLER_0_0_165
*1462 FILLER_0_0_169
*1463 FILLER_0_0_181
*1464 FILLER_0_0_193
*1465 FILLER_0_0_197
*1466 FILLER_0_0_209
*1467 FILLER_0_0_221
*1468 FILLER_0_0_225
*1469 FILLER_0_0_237
*1470 FILLER_0_0_249
*1471 FILLER_0_0_253
*1472 FILLER_0_0_265
*1473 FILLER_0_0_27
*1474 FILLER_0_0_277
*1475 FILLER_0_0_281
*1476 FILLER_0_0_29
*1477 FILLER_0_0_293
*1478 FILLER_0_0_3
*1479 FILLER_0_0_305
*1480 FILLER_0_0_309
*1481 FILLER_0_0_321
*1482 FILLER_0_0_333
*1483 FILLER_0_0_337
*1484 FILLER_0_0_349
*1485 FILLER_0_0_361
*1486 FILLER_0_0_365
*1487 FILLER_0_0_377
*1488 FILLER_0_0_389
*1489 FILLER_0_0_393
*1490 FILLER_0_0_405
*1491 FILLER_0_0_41
*1492 FILLER_0_0_417
*1493 FILLER_0_0_421
*1494 FILLER_0_0_433
*1495 FILLER_0_0_445
*1496 FILLER_0_0_449
*1497 FILLER_0_0_461
*1498 FILLER_0_0_473
*1499 FILLER_0_0_477
*1500 FILLER_0_0_489
*1501 FILLER_0_0_501
*1502 FILLER_0_0_505
*1503 FILLER_0_0_517
*1504 FILLER_0_0_529
*1505 FILLER_0_0_53
*1506 FILLER_0_0_533
*1507 FILLER_0_0_545
*1508 FILLER_0_0_557
*1509 FILLER_0_0_561
*1510 FILLER_0_0_57
*1511 FILLER_0_0_573
*1512 FILLER_0_0_585
*1513 FILLER_0_0_589
*1514 FILLER_0_0_601
*1515 FILLER_0_0_613
*1516 FILLER_0_0_617
*1517 FILLER_0_0_69
*1518 FILLER_0_0_81
*1519 FILLER_0_0_85
*1520 FILLER_0_0_97
*1521 FILLER_0_100_109
*1522 FILLER_0_100_121
*1523 FILLER_0_100_133
*1524 FILLER_0_100_139
*1525 FILLER_0_100_141
*1526 FILLER_0_100_15
*1527 FILLER_0_100_153
*1528 FILLER_0_100_165
*1529 FILLER_0_100_177
*1530 FILLER_0_100_189
*1531 FILLER_0_100_195
*1532 FILLER_0_100_197
*1533 FILLER_0_100_209
*1534 FILLER_0_100_221
*1535 FILLER_0_100_233
*1536 FILLER_0_100_245
*1537 FILLER_0_100_251
*1538 FILLER_0_100_253
*1539 FILLER_0_100_265
*1540 FILLER_0_100_27
*1541 FILLER_0_100_277
*1542 FILLER_0_100_289
*1543 FILLER_0_100_29
*1544 FILLER_0_100_3
*1545 FILLER_0_100_301
*1546 FILLER_0_100_307
*1547 FILLER_0_100_309
*1548 FILLER_0_100_321
*1549 FILLER_0_100_333
*1550 FILLER_0_100_345
*1551 FILLER_0_100_357
*1552 FILLER_0_100_363
*1553 FILLER_0_100_365
*1554 FILLER_0_100_377
*1555 FILLER_0_100_389
*1556 FILLER_0_100_401
*1557 FILLER_0_100_41
*1558 FILLER_0_100_413
*1559 FILLER_0_100_419
*1560 FILLER_0_100_421
*1561 FILLER_0_100_433
*1562 FILLER_0_100_458
*1563 FILLER_0_100_470
*1564 FILLER_0_100_477
*1565 FILLER_0_100_489
*1566 FILLER_0_100_501
*1567 FILLER_0_100_513
*1568 FILLER_0_100_525
*1569 FILLER_0_100_53
*1570 FILLER_0_100_531
*1571 FILLER_0_100_533
*1572 FILLER_0_100_545
*1573 FILLER_0_100_557
*1574 FILLER_0_100_569
*1575 FILLER_0_100_581
*1576 FILLER_0_100_587
*1577 FILLER_0_100_589
*1578 FILLER_0_100_601
*1579 FILLER_0_100_613
*1580 FILLER_0_100_65
*1581 FILLER_0_100_77
*1582 FILLER_0_100_83
*1583 FILLER_0_100_85
*1584 FILLER_0_100_97
*1585 FILLER_0_101_109
*1586 FILLER_0_101_113
*1587 FILLER_0_101_125
*1588 FILLER_0_101_137
*1589 FILLER_0_101_141
*1590 FILLER_0_101_15
*1591 FILLER_0_101_153
*1592 FILLER_0_101_165
*1593 FILLER_0_101_169
*1594 FILLER_0_101_181
*1595 FILLER_0_101_193
*1596 FILLER_0_101_197
*1597 FILLER_0_101_209
*1598 FILLER_0_101_221
*1599 FILLER_0_101_225
*1600 FILLER_0_101_237
*1601 FILLER_0_101_249
*1602 FILLER_0_101_253
*1603 FILLER_0_101_265
*1604 FILLER_0_101_27
*1605 FILLER_0_101_277
*1606 FILLER_0_101_281
*1607 FILLER_0_101_29
*1608 FILLER_0_101_293
*1609 FILLER_0_101_3
*1610 FILLER_0_101_305
*1611 FILLER_0_101_309
*1612 FILLER_0_101_321
*1613 FILLER_0_101_333
*1614 FILLER_0_101_337
*1615 FILLER_0_101_349
*1616 FILLER_0_101_361
*1617 FILLER_0_101_365
*1618 FILLER_0_101_377
*1619 FILLER_0_101_389
*1620 FILLER_0_101_393
*1621 FILLER_0_101_405
*1622 FILLER_0_101_41
*1623 FILLER_0_101_417
*1624 FILLER_0_101_421
*1625 FILLER_0_101_429
*1626 FILLER_0_101_436
*1627 FILLER_0_101_443
*1628 FILLER_0_101_447
*1629 FILLER_0_101_449
*1630 FILLER_0_101_457
*1631 FILLER_0_101_464
*1632 FILLER_0_101_471
*1633 FILLER_0_101_475
*1634 FILLER_0_101_483
*1635 FILLER_0_101_495
*1636 FILLER_0_101_503
*1637 FILLER_0_101_505
*1638 FILLER_0_101_517
*1639 FILLER_0_101_529
*1640 FILLER_0_101_53
*1641 FILLER_0_101_533
*1642 FILLER_0_101_545
*1643 FILLER_0_101_557
*1644 FILLER_0_101_561
*1645 FILLER_0_101_57
*1646 FILLER_0_101_573
*1647 FILLER_0_101_585
*1648 FILLER_0_101_589
*1649 FILLER_0_101_601
*1650 FILLER_0_101_613
*1651 FILLER_0_101_617
*1652 FILLER_0_101_69
*1653 FILLER_0_101_81
*1654 FILLER_0_101_85
*1655 FILLER_0_101_97
*1656 FILLER_0_10_109
*1657 FILLER_0_10_121
*1658 FILLER_0_10_133
*1659 FILLER_0_10_139
*1660 FILLER_0_10_141
*1661 FILLER_0_10_15
*1662 FILLER_0_10_153
*1663 FILLER_0_10_165
*1664 FILLER_0_10_177
*1665 FILLER_0_10_189
*1666 FILLER_0_10_195
*1667 FILLER_0_10_197
*1668 FILLER_0_10_209
*1669 FILLER_0_10_221
*1670 FILLER_0_10_233
*1671 FILLER_0_10_245
*1672 FILLER_0_10_251
*1673 FILLER_0_10_253
*1674 FILLER_0_10_265
*1675 FILLER_0_10_27
*1676 FILLER_0_10_277
*1677 FILLER_0_10_289
*1678 FILLER_0_10_29
*1679 FILLER_0_10_3
*1680 FILLER_0_10_301
*1681 FILLER_0_10_307
*1682 FILLER_0_10_309
*1683 FILLER_0_10_321
*1684 FILLER_0_10_333
*1685 FILLER_0_10_345
*1686 FILLER_0_10_357
*1687 FILLER_0_10_363
*1688 FILLER_0_10_365
*1689 FILLER_0_10_377
*1690 FILLER_0_10_389
*1691 FILLER_0_10_401
*1692 FILLER_0_10_41
*1693 FILLER_0_10_413
*1694 FILLER_0_10_419
*1695 FILLER_0_10_421
*1696 FILLER_0_10_433
*1697 FILLER_0_10_445
*1698 FILLER_0_10_457
*1699 FILLER_0_10_469
*1700 FILLER_0_10_475
*1701 FILLER_0_10_477
*1702 FILLER_0_10_489
*1703 FILLER_0_10_501
*1704 FILLER_0_10_513
*1705 FILLER_0_10_525
*1706 FILLER_0_10_53
*1707 FILLER_0_10_531
*1708 FILLER_0_10_533
*1709 FILLER_0_10_545
*1710 FILLER_0_10_557
*1711 FILLER_0_10_569
*1712 FILLER_0_10_581
*1713 FILLER_0_10_587
*1714 FILLER_0_10_589
*1715 FILLER_0_10_601
*1716 FILLER_0_10_613
*1717 FILLER_0_10_65
*1718 FILLER_0_10_77
*1719 FILLER_0_10_83
*1720 FILLER_0_10_85
*1721 FILLER_0_10_97
*1722 FILLER_0_11_105
*1723 FILLER_0_11_111
*1724 FILLER_0_11_113
*1725 FILLER_0_11_125
*1726 FILLER_0_11_137
*1727 FILLER_0_11_149
*1728 FILLER_0_11_15
*1729 FILLER_0_11_161
*1730 FILLER_0_11_167
*1731 FILLER_0_11_169
*1732 FILLER_0_11_181
*1733 FILLER_0_11_193
*1734 FILLER_0_11_205
*1735 FILLER_0_11_217
*1736 FILLER_0_11_223
*1737 FILLER_0_11_225
*1738 FILLER_0_11_237
*1739 FILLER_0_11_249
*1740 FILLER_0_11_261
*1741 FILLER_0_11_27
*1742 FILLER_0_11_273
*1743 FILLER_0_11_279
*1744 FILLER_0_11_281
*1745 FILLER_0_11_293
*1746 FILLER_0_11_3
*1747 FILLER_0_11_305
*1748 FILLER_0_11_317
*1749 FILLER_0_11_329
*1750 FILLER_0_11_335
*1751 FILLER_0_11_337
*1752 FILLER_0_11_349
*1753 FILLER_0_11_361
*1754 FILLER_0_11_373
*1755 FILLER_0_11_385
*1756 FILLER_0_11_39
*1757 FILLER_0_11_391
*1758 FILLER_0_11_393
*1759 FILLER_0_11_405
*1760 FILLER_0_11_417
*1761 FILLER_0_11_429
*1762 FILLER_0_11_441
*1763 FILLER_0_11_447
*1764 FILLER_0_11_449
*1765 FILLER_0_11_461
*1766 FILLER_0_11_473
*1767 FILLER_0_11_485
*1768 FILLER_0_11_497
*1769 FILLER_0_11_503
*1770 FILLER_0_11_505
*1771 FILLER_0_11_51
*1772 FILLER_0_11_517
*1773 FILLER_0_11_529
*1774 FILLER_0_11_541
*1775 FILLER_0_11_55
*1776 FILLER_0_11_553
*1777 FILLER_0_11_559
*1778 FILLER_0_11_561
*1779 FILLER_0_11_57
*1780 FILLER_0_11_573
*1781 FILLER_0_11_585
*1782 FILLER_0_11_597
*1783 FILLER_0_11_609
*1784 FILLER_0_11_615
*1785 FILLER_0_11_617
*1786 FILLER_0_11_69
*1787 FILLER_0_11_81
*1788 FILLER_0_11_93
*1789 FILLER_0_12_109
*1790 FILLER_0_12_121
*1791 FILLER_0_12_133