*SPEF "ieee 1481-1999"
*DESIGN "netlist_1"
*DATE "17:35:57 Thursday August 08, 2024"
*VENDOR "The OpenROAD Project"
*PROGRAM "OpenROAD"
*VERSION "d423155d69de7f683a23f6916ead418a615ad4ad"
*DESIGN_FLOW "NAME_SCOPE LOCAL" "PIN_CAP NONE"
*DIVIDER /
*DELIMITER :
*BUS_DELIMITER []
*T_UNIT 1 NS
*C_UNIT 1 PF
*R_UNIT 1 OHM
*L_UNIT 1 HENRY

*NAME_MAP
*3 clk
*4 in0
*5 in1
*6 in10
*7 in11
*8 in12
*9 in13
*10 in14
*11 in15
*12 in16
*13 in17
*14 in18
*15 in19
*16 in2
*17 in20
*18 in21
*19 in22
*20 in23
*21 in24
*22 in25
*23 in26
*24 in27
*25 in28
*26 in29
*27 in3
*28 in30
*29 in31
*30 in32
*31 in33
*32 in34
*33 in35
*34 in36
*35 in37
*36 in38
*37 in39
*38 in4
*39 in40
*40 in41
*41 in42
*42 in43
*43 in44
*44 in45
*45 in46
*46 in47
*47 in48
*48 in49
*49 in5
*50 in50
*51 in51
*52 in52
*53 in53
*54 in54
*55 in55
*56 in56
*57 in57
*58 in58
*59 in59
*60 in6
*61 in60
*62 in61
*63 in7
*64 in8
*65 in9
*66 out0
*67 out1
*68 out10
*69 out11
*70 out12
*71 out13
*72 out14
*73 out15
*74 out16
*75 out17
*76 out18
*77 out19
*78 out2
*79 out20
*80 out21
*81 out22
*82 out23
*83 out24
*84 out25
*85 out26
*86 out27
*87 out28
*88 out29
*89 out3
*90 out30
*91 out31
*92 out32
*93 out33
*94 out34
*95 out35
*96 out36
*97 out37
*98 out38
*99 out39
*100 out4
*101 out40
*102 out41
*103 out42
*104 out43
*105 out44
*106 out45
*107 out46
*108 out47
*109 out48
*110 out49
*111 out5
*112 out50
*113 out51
*114 out52
*115 out53
*116 out54
*117 out55
*118 out56
*119 out57
*120 out58
*121 out59
*122 out6
*123 out60
*124 out61
*125 out7
*126 out8
*127 out9
*128 rst
*129 clknet_0_clk
*130 clknet_0_net129
*131 clknet_0_net143
*132 clknet_0_net144
*133 clknet_0_net145
*134 clknet_0_net151
*135 clknet_0_net152
*136 clknet_0_net156
*137 clknet_0_net158
*138 clknet_0_net162
*139 clknet_0_net173
*140 clknet_0_net175
*141 clknet_0_net179
*142 clknet_0_net193
*143 clknet_0_net252
*144 clknet_0_net253
*145 clknet_0_net255
*146 clknet_0_net263
*147 clknet_0_net264
*148 clknet_0_net267
*149 clknet_0_net275
*150 clknet_0_net277
*151 clknet_0_net281
*152 clknet_0_net284
*153 clknet_0_net285
*154 clknet_0_net288
*155 clknet_0_net289
*156 clknet_0_net294
*157 clknet_0_net300
*158 clknet_0_net302
*159 clknet_0_net400
*160 clknet_0_net415
*161 clknet_0_net421
*162 clknet_0_net508
*163 clknet_0_net511
*164 clknet_0_net512
*165 clknet_0_net524
*166 clknet_0_net571
*167 clknet_0_net582
*168 clknet_0_net584
*169 clknet_0_net605
*170 clknet_0_net610
*171 clknet_0_net611
*172 clknet_0_net614
*173 clknet_0_net624
*174 clknet_0_net628
*175 clknet_0_net63
*176 clknet_0_net642
*177 clknet_0_net643
*178 clknet_0_net740
*179 clknet_0_net741
*180 clknet_0_net742
*181 clknet_0_net768
*182 clknet_0_net769
*183 clknet_0_net770
*184 clknet_0_net789
*185 clknet_0_net790
*186 clknet_0_net806
*187 clknet_0_net807
*188 clknet_0_net808
*189 clknet_0_net880
*190 clknet_0_net898
*191 clknet_0_net904
*192 clknet_0_net907
*193 clknet_0_net908
*194 clknet_0_net913
*195 clknet_0_net916
*196 clknet_0_net924
*197 clknet_0_net925
*198 clknet_0_net928
*199 clknet_0_net930
*200 clknet_0_net931
*201 clknet_1_0__leaf_net129
*202 clknet_1_0__leaf_net143
*203 clknet_1_0__leaf_net144
*204 clknet_1_0__leaf_net145
*205 clknet_1_0__leaf_net151
*206 clknet_1_0__leaf_net152
*207 clknet_1_0__leaf_net156
*208 clknet_1_0__leaf_net158
*209 clknet_1_0__leaf_net162
*210 clknet_1_0__leaf_net173
*211 clknet_1_0__leaf_net175
*212 clknet_1_0__leaf_net179
*213 clknet_1_0__leaf_net193
*214 clknet_1_0__leaf_net252
*215 clknet_1_0__leaf_net253
*216 clknet_1_0__leaf_net255
*217 clknet_1_0__leaf_net263
*218 clknet_1_0__leaf_net264
*219 clknet_1_0__leaf_net267
*220 clknet_1_0__leaf_net275
*221 clknet_1_0__leaf_net277
*222 clknet_1_0__leaf_net281
*223 clknet_1_0__leaf_net284
*224 clknet_1_0__leaf_net285
*225 clknet_1_0__leaf_net288
*226 clknet_1_0__leaf_net289
*227 clknet_1_0__leaf_net294
*228 clknet_1_0__leaf_net300
*229 clknet_1_0__leaf_net302
*230 clknet_1_0__leaf_net400
*231 clknet_1_0__leaf_net415
*232 clknet_1_0__leaf_net421
*233 clknet_1_0__leaf_net508
*234 clknet_1_0__leaf_net511
*235 clknet_1_0__leaf_net512
*236 clknet_1_0__leaf_net524
*237 clknet_1_0__leaf_net571
*238 clknet_1_0__leaf_net582
*239 clknet_1_0__leaf_net584
*240 clknet_1_0__leaf_net605
*241 clknet_1_0__leaf_net610
*242 clknet_1_0__leaf_net611
*243 clknet_1_0__leaf_net614
*244 clknet_1_0__leaf_net624
*245 clknet_1_0__leaf_net628
*246 clknet_1_0__leaf_net63
*247 clknet_1_0__leaf_net642
*248 clknet_1_0__leaf_net643
*249 clknet_1_0__leaf_net740
*250 clknet_1_0__leaf_net741
*251 clknet_1_0__leaf_net742
*252 clknet_1_0__leaf_net768
*253 clknet_1_0__leaf_net769
*254 clknet_1_0__leaf_net770
*255 clknet_1_0__leaf_net789
*256 clknet_1_0__leaf_net790
*257 clknet_1_0__leaf_net806
*258 clknet_1_0__leaf_net807
*259 clknet_1_0__leaf_net808
*260 clknet_1_0__leaf_net880
*261 clknet_1_0__leaf_net898
*262 clknet_1_0__leaf_net904
*263 clknet_1_0__leaf_net907
*264 clknet_1_0__leaf_net908
*265 clknet_1_0__leaf_net913
*266 clknet_1_0__leaf_net916
*267 clknet_1_0__leaf_net924
*268 clknet_1_0__leaf_net925
*269 clknet_1_0__leaf_net928
*270 clknet_1_0__leaf_net930
*271 clknet_1_0__leaf_net931
*272 clknet_1_1__leaf_net129
*273 clknet_1_1__leaf_net143
*274 clknet_1_1__leaf_net144
*275 clknet_1_1__leaf_net145
*276 clknet_1_1__leaf_net151
*277 clknet_1_1__leaf_net152
*278 clknet_1_1__leaf_net156
*279 clknet_1_1__leaf_net158
*280 clknet_1_1__leaf_net162
*281 clknet_1_1__leaf_net173
*282 clknet_1_1__leaf_net175
*283 clknet_1_1__leaf_net179
*284 clknet_1_1__leaf_net193
*285 clknet_1_1__leaf_net252
*286 clknet_1_1__leaf_net253
*287 clknet_1_1__leaf_net255
*288 clknet_1_1__leaf_net263
*289 clknet_1_1__leaf_net264
*290 clknet_1_1__leaf_net267
*291 clknet_1_1__leaf_net275
*292 clknet_1_1__leaf_net277
*293 clknet_1_1__leaf_net281
*294 clknet_1_1__leaf_net284
*295 clknet_1_1__leaf_net285
*296 clknet_1_1__leaf_net288
*297 clknet_1_1__leaf_net289
*298 clknet_1_1__leaf_net294
*299 clknet_1_1__leaf_net300
*300 clknet_1_1__leaf_net302
*301 clknet_1_1__leaf_net400
*302 clknet_1_1__leaf_net415
*303 clknet_1_1__leaf_net421
*304 clknet_1_1__leaf_net508
*305 clknet_1_1__leaf_net511
*306 clknet_1_1__leaf_net512
*307 clknet_1_1__leaf_net524
*308 clknet_1_1__leaf_net571
*309 clknet_1_1__leaf_net582
*310 clknet_1_1__leaf_net584
*311 clknet_1_1__leaf_net605
*312 clknet_1_1__leaf_net610
*313 clknet_1_1__leaf_net611
*314 clknet_1_1__leaf_net614
*315 clknet_1_1__leaf_net624
*316 clknet_1_1__leaf_net628
*317 clknet_1_1__leaf_net63
*318 clknet_1_1__leaf_net642
*319 clknet_1_1__leaf_net643
*320 clknet_1_1__leaf_net740
*321 clknet_1_1__leaf_net741
*322 clknet_1_1__leaf_net742
*323 clknet_1_1__leaf_net768
*324 clknet_1_1__leaf_net769
*325 clknet_1_1__leaf_net770
*326 clknet_1_1__leaf_net789
*327 clknet_1_1__leaf_net790
*328 clknet_1_1__leaf_net806
*329 clknet_1_1__leaf_net807
*330 clknet_1_1__leaf_net808
*331 clknet_1_1__leaf_net880
*332 clknet_1_1__leaf_net898
*333 clknet_1_1__leaf_net904
*334 clknet_1_1__leaf_net907
*335 clknet_1_1__leaf_net908
*336 clknet_1_1__leaf_net913
*337 clknet_1_1__leaf_net916
*338 clknet_1_1__leaf_net924
*339 clknet_1_1__leaf_net925
*340 clknet_1_1__leaf_net928
*341 clknet_1_1__leaf_net930
*342 clknet_1_1__leaf_net931
*343 clknet_4_0_0_clk
*344 clknet_4_10_0_clk
*345 clknet_4_11_0_clk
*346 clknet_4_12_0_clk
*347 clknet_4_13_0_clk
*348 clknet_4_14_0_clk
*349 clknet_4_15_0_clk
*350 clknet_4_1_0_clk
*351 clknet_4_2_0_clk
*352 clknet_4_3_0_clk
*353 clknet_4_4_0_clk
*354 clknet_4_5_0_clk
*355 clknet_4_6_0_clk
*356 clknet_4_7_0_clk
*357 clknet_4_8_0_clk
*358 clknet_4_9_0_clk
*359 net0
*360 net1
*361 net10
*362 net100
*363 net1000
*364 net1001
*365 net1002
*366 net1003
*367 net1004
*368 net1005
*369 net1006
*370 net1007
*371 net1008
*372 net1009
*373 net101
*374 net1010
*375 net1011
*376 net1012
*377 net1013
*378 net1014
*379 net1015
*380 net1016
*381 net1017
*382 net1018
*383 net1019
*384 net102
*385 net1020
*386 net1021
*387 net1022
*388 net1023
*389 net1024
*390 net1025
*391 net1026
*392 net1027
*393 net1028
*394 net1029
*395 net103
*396 net1030
*397 net1031
*398 net1032
*399 net104
*400 net105
*401 net106
*402 net107
*403 net108
*404 net109
*405 net11
*406 net110
*407 net111
*408 net112
*409 net113
*410 net114
*411 net115
*412 net116
*413 net117
*414 net118
*415 net119
*416 net12
*417 net120
*418 net121
*419 net122
*420 net123
*421 net124
*422 net125
*423 net126
*424 net127
*425 net128
*426 net129
*427 net13
*428 net130
*429 net131
*430 net132
*431 net133
*432 net134
*433 net135
*434 net136
*435 net137
*436 net138
*437 net139
*438 net14
*439 net140
*440 net141
*441 net142
*442 net143
*443 net144
*444 net145
*445 net146
*446 net147
*447 net148
*448 net149
*449 net15
*450 net150
*451 net151
*452 net152
*453 net153
*454 net154
*455 net155
*456 net156
*457 net157
*458 net158
*459 net159
*460 net16
*461 net160
*462 net161
*463 net162
*464 net163
*465 net164
*466 net165
*467 net166
*468 net167
*469 net168
*470 net169
*471 net17
*472 net170
*473 net171
*474 net172
*475 net173
*476 net174
*477 net175
*478 net176
*479 net177
*480 net178
*481 net179
*482 net18
*483 net180
*484 net181
*485 net182
*486 net183
*487 net184
*488 net185
*489 net186
*490 net187
*491 net188
*492 net189
*493 net19
*494 net190
*495 net191
*496 net192
*497 net193
*498 net194
*499 net195
*500 net196
*501 net197
*502 net198
*503 net199
*504 net2
*505 net20
*506 net200
*507 net201
*508 net202
*509 net203
*510 net204
*511 net205
*512 net206
*513 net207
*514 net208
*515 net209
*516 net21
*517 net210
*518 net211
*519 net212
*520 net213
*521 net214
*522 net215
*523 net216
*524 net217
*525 net218
*526 net219
*527 net22
*528 net220
*529 net221
*530 net222
*531 net223
*532 net224
*533 net225
*534 net226
*535 net227
*536 net228
*537 net229
*538 net23
*539 net230
*540 net231
*541 net232
*542 net233
*543 net234
*544 net235
*545 net236
*546 net237
*547 net238
*548 net239
*549 net24
*550 net240
*551 net241
*552 net242
*553 net243
*554 net244
*555 net245
*556 net246
*557 net247
*558 net248
*559 net249
*560 net25
*561 net250
*562 net251
*563 net252
*564 net253
*565 net254
*566 net255
*567 net256
*568 net257
*569 net258
*570 net259
*571 net26
*572 net260
*573 net261
*574 net262
*575 net263
*576 net264
*577 net265
*578 net266
*579 net267
*580 net268
*581 net269
*582 net27
*583 net270
*584 net271
*585 net272
*586 net273
*587 net274
*588 net275
*589 net276
*590 net277
*591 net278
*592 net279
*593 net28
*594 net280
*595 net281
*596 net282
*597 net283
*598 net284
*599 net285
*600 net286
*601 net287
*602 net288
*603 net289
*604 net29
*605 net290
*606 net291
*607 net292
*608 net293
*609 net294
*610 net295
*611 net296
*612 net297
*613 net298
*614 net299
*615 net3
*616 net30
*617 net300
*618 net301
*619 net302
*620 net303
*621 net304
*622 net305
*623 net306
*624 net307
*625 net308
*626 net309
*627 net31
*628 net310
*629 net311
*630 net312
*631 net313
*632 net314
*633 net315
*634 net316
*635 net317
*636 net318
*637 net319
*638 net32
*639 net320
*640 net321
*641 net322
*642 net323
*643 net324
*644 net325
*645 net326
*646 net327
*647 net328
*648 net329
*649 net33
*650 net330
*651 net331
*652 net332
*653 net333
*654 net334
*655 net335
*656 net336
*657 net337
*658 net338
*659 net339
*660 net34
*661 net340
*662 net341
*663 net342
*664 net343
*665 net344
*666 net345
*667 net346
*668 net347
*669 net348
*670 net349
*671 net35
*672 net350
*673 net351
*674 net352
*675 net353
*676 net354
*677 net355
*678 net356
*679 net357
*680 net358
*681 net359
*682 net36
*683 net360
*684 net361
*685 net362
*686 net363
*687 net364
*688 net365
*689 net366
*690 net367
*691 net368
*692 net369
*693 net37
*694 net370
*695 net371
*696 net372
*697 net373
*698 net374
*699 net375
*700 net376
*701 net377
*702 net378
*703 net379
*704 net38
*705 net380
*706 net381
*707 net382
*708 net383
*709 net384
*710 net385
*711 net386
*712 net387
*713 net388
*714 net389
*715 net39
*716 net390
*717 net391
*718 net392
*719 net393
*720 net394
*721 net395
*722 net396
*723 net397
*724 net398
*725 net399
*726 net4
*727 net40
*728 net400
*729 net401
*730 net402
*731 net403
*732 net404
*733 net405
*734 net406
*735 net407
*736 net408
*737 net409
*738 net41
*739 net410
*740 net411
*741 net412
*742 net413
*743 net414
*744 net415
*745 net416
*746 net417
*747 net418
*748 net419
*749 net42
*750 net420
*751 net421
*752 net422
*753 net423
*754 net424
*755 net425
*756 net426
*757 net427
*758 net428
*759 net429
*760 net43
*761 net430
*762 net431
*763 net432
*764 net433
*765 net434
*766 net435
*767 net436
*768 net437
*769 net438
*770 net439
*771 net44
*772 net440
*773 net441
*774 net442
*775 net443
*776 net444
*777 net445
*778 net446
*779 net447
*780 net448
*781 net449
*782 net45
*783 net450
*784 net451
*785 net452
*786 net453
*787 net454
*788 net455
*789 net456
*790 net457
*791 net458
*792 net459
*793 net46
*794 net460
*795 net461
*796 net462
*797 net463
*798 net464
*799 net465
*800 net466
*801 net467
*802 net468
*803 net469
*804 net47
*805 net470
*806 net471
*807 net472
*808 net473
*809 net474
*810 net475
*811 net476
*812 net477
*813 net478
*814 net479
*815 net48
*816 net480
*817 net481
*818 net482
*819 net483
*820 net484
*821 net485
*822 net486
*823 net487
*824 net488
*825 net489
*826 net49
*827 net490
*828 net491
*829 net492
*830 net493
*831 net494
*832 net495
*833 net496
*834 net497
*835 net498
*836 net499
*837 net5
*838 net50
*839 net500
*840 net501
*841 net502
*842 net503
*843 net504
*844 net505
*845 net506
*846 net507
*847 net508
*848 net509
*849 net51
*850 net510
*851 net511
*852 net512
*853 net513
*854 net514
*855 net515
*856 net516
*857 net517
*858 net518
*859 net519
*860 net52
*861 net520
*862 net521
*863 net522
*864 net523
*865 net524
*866 net525
*867 net526
*868 net527
*869 net528
*870 net529
*871 net53
*872 net530
*873 net531
*874 net532
*875 net533
*876 net534
*877 net535
*878 net536
*879 net537
*880 net538
*881 net539
*882 net54
*883 net540
*884 net541
*885 net542
*886 net543
*887 net544
*888 net545
*889 net546
*890 net547
*891 net548
*892 net549
*893 net55
*894 net550
*895 net551
*896 net552
*897 net553
*898 net554
*899 net555
*900 net556
*901 net557
*902 net558
*903 net559
*904 net56
*905 net560
*906 net561
*907 net562
*908 net563
*909 net564
*910 net565
*911 net566
*912 net567
*913 net568
*914 net569
*915 net57
*916 net570
*917 net571
*918 net572
*919 net573
*920 net574
*921 net575
*922 net576
*923 net577
*924 net578
*925 net579
*926 net58
*927 net580
*928 net581
*929 net582
*930 net583
*931 net584
*932 net585
*933 net586
*934 net587
*935 net588
*936 net589
*937 net59
*938 net590
*939 net591
*940 net592
*941 net593
*942 net594
*943 net595
*944 net596
*945 net597
*946 net598
*947 net599
*948 net6
*949 net60
*950 net600
*951 net601
*952 net602
*953 net603
*954 net604
*955 net605
*956 net606
*957 net607
*958 net608
*959 net609
*960 net61
*961 net610
*962 net611
*963 net612
*964 net613
*965 net614
*966 net615
*967 net616
*968 net617
*969 net618
*970 net619
*971 net62
*972 net620
*973 net621
*974 net622
*975 net623
*976 net624
*977 net625
*978 net626
*979 net627
*980 net628
*981 net629
*982 net63
*983 net630
*984 net631
*985 net632
*986 net633
*987 net634
*988 net635
*989 net636
*990 net637
*991 net638
*992 net639
*993 net64
*994 net640
*995 net641
*996 net642
*997 net643
*998 net644
*999 net645
*1000 net646
*1001 net647
*1002 net648
*1003 net649
*1004 net65
*1005 net650
*1006 net651
*1007 net652
*1008 net653
*1009 net654
*1010 net655
*1011 net656
*1012 net657
*1013 net658
*1014 net659
*1015 net66
*1016 net660
*1017 net661
*1018 net662
*1019 net663
*1020 net664
*1021 net665
*1022 net666
*1023 net667
*1024 net668
*1025 net669
*1026 net67
*1027 net670
*1028 net671
*1029 net672
*1030 net673
*1031 net674
*1032 net675
*1033 net676
*1034 net677
*1035 net678
*1036 net679
*1037 net68
*1038 net680
*1039 net681
*1040 net682
*1041 net683
*1042 net684
*1043 net685
*1044 net686
*1045 net687
*1046 net688
*1047 net689
*1048 net69
*1049 net690
*1050 net691
*1051 net692
*1052 net693
*1053 net694
*1054 net695
*1055 net696
*1056 net697
*1057 net698
*1058 net699
*1059 net7
*1060 net70
*1061 net700
*1062 net701
*1063 net702
*1064 net703
*1065 net704
*1066 net705
*1067 net706
*1068 net707
*1069 net708
*1070 net709
*1071 net71
*1072 net710
*1073 net711
*1074 net712
*1075 net713
*1076 net714
*1077 net715
*1078 net716
*1079 net717
*1080 net718
*1081 net719
*1082 net72
*1083 net720
*1084 net721
*1085 net722
*1086 net723
*1087 net724
*1088 net725
*1089 net726
*1090 net727
*1091 net728
*1092 net729
*1093 net73
*1094 net730
*1095 net731
*1096 net732
*1097 net733
*1098 net734
*1099 net735
*1100 net736
*1101 net737
*1102 net738
*1103 net739
*1104 net74
*1105 net740
*1106 net741
*1107 net742
*1108 net743
*1109 net744
*1110 net745
*1111 net746
*1112 net747
*1113 net748
*1114 net749
*1115 net75
*1116 net750
*1117 net751
*1118 net752
*1119 net753
*1120 net754
*1121 net755
*1122 net756
*1123 net757
*1124 net758
*1125 net759
*1126 net76
*1127 net760
*1128 net761
*1129 net762
*1130 net763
*1131 net764
*1132 net765
*1133 net766
*1134 net767
*1135 net768
*1136 net769
*1137 net77
*1138 net770
*1139 net771
*1140 net772
*1141 net773
*1142 net774
*1143 net775
*1144 net776
*1145 net777
*1146 net778
*1147 net779
*1148 net78
*1149 net780
*1150 net781
*1151 net782
*1152 net783
*1153 net784
*1154 net785
*1155 net786
*1156 net787
*1157 net788
*1158 net789
*1159 net79
*1160 net790
*1161 net791
*1162 net792
*1163 net793
*1164 net794
*1165 net795
*1166 net796
*1167 net797
*1168 net798
*1169 net799
*1170 net8
*1171 net80
*1172 net800
*1173 net801
*1174 net802
*1175 net803
*1176 net804
*1177 net805
*1178 net806
*1179 net807
*1180 net808
*1181 net809
*1182 net81
*1183 net810
*1184 net811
*1185 net812
*1186 net813
*1187 net814
*1188 net815
*1189 net816
*1190 net817
*1191 net818
*1192 net819
*1193 net82
*1194 net820
*1195 net821
*1196 net822
*1197 net823
*1198 net824
*1199 net825
*1200 net826
*1201 net827
*1202 net828
*1203 net829
*1204 net83
*1205 net830
*1206 net831
*1207 net832
*1208 net833
*1209 net834
*1210 net835
*1211 net836
*1212 net837
*1213 net838
*1214 net839
*1215 net84
*1216 net840
*1217 net841
*1218 net842
*1219 net843
*1220 net844
*1221 net845
*1222 net846
*1223 net847
*1224 net848
*1225 net849
*1226 net85
*1227 net850
*1228 net851
*1229 net852
*1230 net853
*1231 net854
*1232 net855
*1233 net856
*1234 net857
*1235 net858
*1236 net859
*1237 net86
*1238 net860
*1239 net861
*1240 net862
*1241 net863
*1242 net864
*1243 net865
*1244 net866
*1245 net867
*1246 net868
*1247 net869
*1248 net87
*1249 net870
*1250 net871
*1251 net872
*1252 net873
*1253 net874
*1254 net875
*1255 net876
*1256 net877
*1257 net878
*1258 net879
*1259 net88
*1260 net880
*1261 net881
*1262 net882
*1263 net883
*1264 net884
*1265 net885
*1266 net886
*1267 net887
*1268 net888
*1269 net889
*1270 net89
*1271 net890
*1272 net891
*1273 net892
*1274 net893
*1275 net894
*1276 net895
*1277 net896
*1278 net897
*1279 net898
*1280 net899
*1281 net9
*1282 net90
*1283 net900
*1284 net901
*1285 net902
*1286 net903
*1287 net904
*1288 net905
*1289 net906
*1290 net907
*1291 net908
*1292 net909
*1293 net91
*1294 net910
*1295 net911
*1296 net912
*1297 net913
*1298 net914
*1299 net915
*1300 net916
*1301 net917
*1302 net918
*1303 net919
*1304 net92
*1305 net920
*1306 net921
*1307 net922
*1308 net923
*1309 net924
*1310 net925
*1311 net926
*1312 net927
*1313 net928
*1314 net929
*1315 net93
*1316 net930
*1317 net931
*1318 net932
*1319 net933
*1320 net934
*1321 net935
*1322 net936
*1323 net937
*1324 net938
*1325 net939
*1326 net94
*1327 net940
*1328 net941
*1329 net942
*1330 net943
*1331 net944
*1332 net945
*1333 net946
*1334 net947
*1335 net948
*1336 net949
*1337 net95
*1338 net950
*1339 net951
*1340 net952
*1341 net953
*1342 net954
*1343 net955
*1344 net956
*1345 net957
*1346 net958
*1347 net959
*1348 net96
*1349 net960
*1350 net961
*1351 net962
*1352 net963
*1353 net964
*1354 net965
*1355 net966
*1356 net967
*1357 net968
*1358 net969
*1359 net97
*1360 net970
*1361 net971
*1362 net972
*1363 net973
*1364 net974
*1365 net975
*1366 net976
*1367 net977
*1368 net978
*1369 net979
*1370 net98
*1371 net980
*1372 net981
*1373 net982
*1374 net983
*1375 net984
*1376 net985
*1377 net986
*1378 net987
*1379 net988
*1380 net989
*1381 net99
*1382 net990
*1383 net991
*1384 net992
*1385 net993
*1386 net994
*1387 net995
*1388 net996
*1389 net997
*1390 net998
*1391 net999
*1392 ANTENNA_c100_A2
*1393 ANTENNA_c100_X
*1394 ANTENNA_c101_A2
*1395 ANTENNA_c102_A2
*1396 ANTENNA_c102_B1_N
*1397 ANTENNA_c103_A2
*1398 ANTENNA_c105_Y
*1399 ANTENNA_c106_B1
*1400 ANTENNA_c107_B1_N
*1401 ANTENNA_c109_A2
*1402 ANTENNA_c109_S1
*1403 ANTENNA_c110_A
*1404 ANTENNA_c110_B
*1405 ANTENNA_c111_A
*1406 ANTENNA_c111_B
*1407 ANTENNA_c112_A
*1408 ANTENNA_c112_B
*1409 ANTENNA_c113_A
*1410 ANTENNA_c113_B
*1411 ANTENNA_c114_A
*1412 ANTENNA_c114_B
*1413 ANTENNA_c115_A1
*1414 ANTENNA_c115_A2
*1415 ANTENNA_c115_A4
*1416 ANTENNA_c115_B1
*1417 ANTENNA_c116_A2
*1418 ANTENNA_c116_B1_N
*1419 ANTENNA_c117_A
*1420 ANTENNA_c117_B
*1421 ANTENNA_c121_A2
*1422 ANTENNA_c122_CLK_N
*1423 ANTENNA_c122_Q
*1424 ANTENNA_c122_SET_B
*1425 ANTENNA_c123_A2
*1426 ANTENNA_c123_B1_N
*1427 ANTENNA_c124_X
*1428 ANTENNA_c125_A0
*1429 ANTENNA_c125_A3
*1430 ANTENNA_c126_A4
*1431 ANTENNA_c127_A1
*1432 ANTENNA_c127_A3
*1433 ANTENNA_c127_S1
*1434 ANTENNA_c128_A2
*1435 ANTENNA_c129_A1
*1436 ANTENNA_c130_CLK
*1437 ANTENNA_c130_SCD
*1438 ANTENNA_c131_A3
*1439 ANTENNA_c135_B1
*1440 ANTENNA_c136_A
*1441 ANTENNA_c138_B
*1442 ANTENNA_c140_A
*1443 ANTENNA_c141_A4
*1444 ANTENNA_c141_X
*1445 ANTENNA_c142_B
*1446 ANTENNA_c143_A1
*1447 ANTENNA_c143_B1_N
*1448 ANTENNA_c144_Y
*1449 ANTENNA_c145_A2
*1450 ANTENNA_c146_B
*1451 ANTENNA_c147_B
*1452 ANTENNA_c147_Y
*1453 ANTENNA_c148_A2
*1454 ANTENNA_c148_A3
*1455 ANTENNA_c148_B1
*1456 ANTENNA_c149_Y
*1457 ANTENNA_c150_A1
*1458 ANTENNA_c150_A2
*1459 ANTENNA_c150_X
*1460 ANTENNA_c151_A0
*1461 ANTENNA_c151_A1
*1462 ANTENNA_c151_A3
*1463 ANTENNA_c151_S0
*1464 ANTENNA_c151_S1
*1465 ANTENNA_c151_X
*1466 ANTENNA_c152_S0
*1467 ANTENNA_c152_X
*1468 ANTENNA_c153_A2
*1469 ANTENNA_c153_B1
*1470 ANTENNA_c154_A1
*1471 ANTENNA_c154_X
*1472 ANTENNA_c155_A
*1473 ANTENNA_c155_B
*1474 ANTENNA_c156_A
*1475 ANTENNA_c156_B
*1476 ANTENNA_c157_B
*1477 ANTENNA_c158_X
*1478 ANTENNA_c159_A1
*1479 ANTENNA_c159_A2
*1480 ANTENNA_c160_A2
*1481 ANTENNA_c161_B
*1482 ANTENNA_c162_B
*1483 ANTENNA_c163_S0
*1484 ANTENNA_c164_A1
*1485 ANTENNA_c164_B1_N
*1486 ANTENNA_c165_A3
*1487 ANTENNA_c165_X
*1488 ANTENNA_c166_A
*1489 ANTENNA_c167_B
*1490 ANTENNA_c168_X
*1491 ANTENNA_c171_S0
*1492 ANTENNA_c171_S1
*1493 ANTENNA_c173_A2
*1494 ANTENNA_c173_S0
*1495 ANTENNA_c174_A1
*1496 ANTENNA_c175_A3
*1497 ANTENNA_c175_S0
*1498 ANTENNA_c175_S1
*1499 ANTENNA_c175_X
*1500 ANTENNA_c176_B
*1501 ANTENNA_c176_Y
*1502 ANTENNA_c177_B
*1503 ANTENNA_c178_A2
*1504 ANTENNA_c178_B1
*1505 ANTENNA_c179_B1_N
*1506 ANTENNA_c180_B1_N
*1507 ANTENNA_c181_A2
*1508 ANTENNA_c182_B
*1509 ANTENNA_c183_A1
*1510 ANTENNA_c183_X
*1511 ANTENNA_c184_A1
*1512 ANTENNA_c184_B1_N
*1513 ANTENNA_c185_A2
*1514 ANTENNA_c185_X
*1515 ANTENNA_c186_A1
*1516 ANTENNA_c186_X
*1517 ANTENNA_c187_A1
*1518 ANTENNA_c187_A2
*1519 ANTENNA_c188_S0
*1520 ANTENNA_c188_S1
*1521 ANTENNA_c189_A2
*1522 ANTENNA_c189_B1
*1523 ANTENNA_c189_X
*1524 ANTENNA_c190_A1
*1525 ANTENNA_c190_A2
*1526 ANTENNA_c190_B1
*1527 ANTENNA_c190_X
*1528 ANTENNA_c191_A1
*1529 ANTENNA_c191_A3
*1530 ANTENNA_c191_S1
*1531 ANTENNA_c193_B1_N
*1532 ANTENNA_c193_X
*1533 ANTENNA_c194_A3
*1534 ANTENNA_c194_S0
*1535 ANTENNA_c195_A3
*1536 ANTENNA_c196_X
*1537 ANTENNA_c197_A1
*1538 ANTENNA_c197_A3
*1539 ANTENNA_c197_S0
*1540 ANTENNA_c199_A1
*1541 ANTENNA_c199_A3
*1542 ANTENNA_c199_S0
*1543 ANTENNA_c200_A2
*1544 ANTENNA_c200_B1_N
*1545 ANTENNA_c201_A1
*1546 ANTENNA_c201_A2
*1547 ANTENNA_c201_B1_N
*1548 ANTENNA_c201_X
*1549 ANTENNA_c202_A2
*1550 ANTENNA_c203_X
*1551 ANTENNA_c204_A1
*1552 ANTENNA_c204_A2
*1553 ANTENNA_c204_X
*1554 ANTENNA_c205_A2
*1555 ANTENNA_c206_A2
*1556 ANTENNA_c206_A3
*1557 ANTENNA_c207_A
*1558 ANTENNA_c209_A2
*1559 ANTENNA_c209_B1
*1560 ANTENNA_c210_A
*1561 ANTENNA_c211_A2
*1562 ANTENNA_c211_A3
*1563 ANTENNA_c211_S0
*1564 ANTENNA_c211_S1
*1565 ANTENNA_c214_A1
*1566 ANTENNA_c216_A2
*1567 ANTENNA_c217_A3
*1568 ANTENNA_c217_S1
*1569 ANTENNA_c218_S1
*1570 ANTENNA_c219_A1
*1571 ANTENNA_c219_A2
*1572 ANTENNA_c220_A2
*1573 ANTENNA_c220_B1_N
*1574 ANTENNA_c220_X
*1575 ANTENNA_c221_A2
*1576 ANTENNA_c221_X
*1577 ANTENNA_c224_A1
*1578 ANTENNA_c224_A2
*1579 ANTENNA_c224_B1_N
*1580 ANTENNA_c225_A1
*1581 ANTENNA_c225_A2
*1582 ANTENNA_c225_A3
*1583 ANTENNA_c226_B1_N
*1584 ANTENNA_c227_B1_N
*1585 ANTENNA_c228_A2
*1586 ANTENNA_c229_A2
*1587 ANTENNA_c229_B1_N
*1588 ANTENNA_c231_A1
*1589 ANTENNA_c231_A3
*1590 ANTENNA_c231_B1
*1591 ANTENNA_c231_X
*1592 ANTENNA_c232_A2
*1593 ANTENNA_c234_Q
*1594 ANTENNA_c234_Q_N
*1595 ANTENNA_c234_SET_B
*1596 ANTENNA_c235_A1
*1597 ANTENNA_c237_A1
*1598 ANTENNA_c237_A2
*1599 ANTENNA_c238_D
*1600 ANTENNA_c238_SCD
*1601 ANTENNA_c239_A1
*1602 ANTENNA_c239_A4
*1603 ANTENNA_c240_X
*1604 ANTENNA_c241_A0
*1605 ANTENNA_c241_A3
*1606 ANTENNA_c242_A1
*1607 ANTENNA_c242_A2
*1608 ANTENNA_c243_A2
*1609 ANTENNA_c243_B1_N
*1610 ANTENNA_c244_A2
*1611 ANTENNA_c244_B1_N
*1612 ANTENNA_c245_B1_N
*1613 ANTENNA_c247_A1
*1614 ANTENNA_c247_A2
*1615 ANTENNA_c247_S1
*1616 ANTENNA_c248_A2
*1617 ANTENNA_c248_B1_N
*1618 ANTENNA_c250_A2
*1619 ANTENNA_c250_S0
*1620 ANTENNA_c252_A3
*1621 ANTENNA_c252_S0
*1622 ANTENNA_c253_A1
*1623 ANTENNA_c256_A1
*1624 ANTENNA_c257_A0
*1625 ANTENNA_c257_A3
*1626 ANTENNA_c257_S0
*1627 ANTENNA_c258_A1
*1628 ANTENNA_c259_A0
*1629 ANTENNA_c259_A1
*1630 ANTENNA_c259_A2
*1631 ANTENNA_c261_A1
*1632 ANTENNA_c263_A2
*1633 ANTENNA_c263_S0
*1634 ANTENNA_c264_Y
*1635 ANTENNA_c267_A
*1636 ANTENNA_c267_B
*1637 ANTENNA_c268_Y
*1638 ANTENNA_c269_A
*1639 ANTENNA_c269_Y
*1640 ANTENNA_c270_A1
*1641 ANTENNA_c270_A4
*1642 ANTENNA_c270_B1
*1643 ANTENNA_c271_B
*1644 ANTENNA_c272_A1
*1645 ANTENNA_c272_A2
*1646 ANTENNA_c272_B1_N
*1647 ANTENNA_c273_B1_N
*1648 ANTENNA_c274_A1
*1649 ANTENNA_c274_A2
*1650 ANTENNA_c275_Y
*1651 ANTENNA_c276_A
*1652 ANTENNA_c276_B
*1653 ANTENNA_c276_Y
*1654 ANTENNA_c278_A2
*1655 ANTENNA_c278_A3
*1656 ANTENNA_c278_B1
*1657 ANTENNA_c279_Y
*1658 ANTENNA_c280_A1
*1659 ANTENNA_c280_A3
*1660 ANTENNA_c280_A4
*1661 ANTENNA_c280_X
*1662 ANTENNA_c281_A1
*1663 ANTENNA_c282_A2
*1664 ANTENNA_c282_A3
*1665 ANTENNA_c282_A4
*1666 ANTENNA_c283_A3
*1667 ANTENNA_c283_S0
*1668 ANTENNA_c283_S1
*1669 ANTENNA_c284_A3
*1670 ANTENNA_c284_A4
*1671 ANTENNA_c284_B1
*1672 ANTENNA_c285_A1
*1673 ANTENNA_c285_A2
*1674 ANTENNA_c285_A3
*1675 ANTENNA_c285_B1
*1676 ANTENNA_c286_B
*1677 ANTENNA_c287_X
*1678 ANTENNA_c288_A
*1679 ANTENNA_c288_B
*1680 ANTENNA_c289_A
*1681 ANTENNA_c290_B
*1682 ANTENNA_c292_A2
*1683 ANTENNA_c292_A4
*1684 ANTENNA_c292_B1
*1685 ANTENNA_c294_B
*1686 ANTENNA_c295_B
*1687 ANTENNA_c295_Y
*1688 ANTENNA_c296_B
*1689 ANTENNA_c296_Y
*1690 ANTENNA_c297_B
*1691 ANTENNA_c299_A3
*1692 ANTENNA_c299_B1
*1693 ANTENNA_c301_B1_N
*1694 ANTENNA_c302_Y
*1695 ANTENNA_c303_A1
*1696 ANTENNA_c303_A3
*1697 ANTENNA_c303_A4
*1698 ANTENNA_c303_B1
*1699 ANTENNA_c304_A1
*1700 ANTENNA_c304_S0
*1701 ANTENNA_c305_B1_N
*1702 ANTENNA_c306_A2
*1703 ANTENNA_c306_X
*1704 ANTENNA_c307_A2
*1705 ANTENNA_c307_X
*1706 ANTENNA_c309_Y
*1707 ANTENNA_c310_B1_N
*1708 ANTENNA_c313_B
*1709 ANTENNA_c314_X
*1710 ANTENNA_c317_A2
*1711 ANTENNA_c317_B1_N
*1712 ANTENNA_c319_A1
*1713 ANTENNA_c320_A3
*1714 ANTENNA_c320_X
*1715 ANTENNA_c321_A1
*1716 ANTENNA_c321_A2
*1717 ANTENNA_c321_S1
*1718 ANTENNA_c325_A3
*1719 ANTENNA_c325_S0
*1720 ANTENNA_c325_S1
*1721 ANTENNA_c326_A2
*1722 ANTENNA_c326_B1
*1723 ANTENNA_c327_A1
*1724 ANTENNA_c327_S0
*1725 ANTENNA_c328_A1
*1726 ANTENNA_c328_A2
*1727 ANTENNA_c328_A3
*1728 ANTENNA_c328_S1
*1729 ANTENNA_c329_A2
*1730 ANTENNA_c329_A3
*1731 ANTENNA_c331_A1
*1732 ANTENNA_c331_A2
*1733 ANTENNA_c332_A1
*1734 ANTENNA_c332_A2
*1735 ANTENNA_c333_A2
*1736 ANTENNA_c333_B1_N
*1737 ANTENNA_c334_A1
*1738 ANTENNA_c335_B1_N
*1739 ANTENNA_c336_RESET_B
*1740 ANTENNA_c337_A2
*1741 ANTENNA_c337_B1_N
*1742 ANTENNA_c338_A0
*1743 ANTENNA_c338_A1
*1744 ANTENNA_c338_A2
*1745 ANTENNA_c339_A1
*1746 ANTENNA_c339_A2
*1747 ANTENNA_c339_A3
*1748 ANTENNA_c340_A2
*1749 ANTENNA_c340_A3
*1750 ANTENNA_c340_S1
*1751 ANTENNA_c341_A2
*1752 ANTENNA_c342_A1
*1753 ANTENNA_c342_A3
*1754 ANTENNA_c343_B1_N
*1755 ANTENNA_c344_A0
*1756 ANTENNA_c346_A1
*1757 ANTENNA_c346_A2
*1758 ANTENNA_c347_A3
*1759 ANTENNA_c348_S0
*1760 ANTENNA_c348_S1
*1761 ANTENNA_c350_S0
*1762 ANTENNA_c352_A2
*1763 ANTENNA_c353_A2
*1764 ANTENNA_c353_S0
*1765 ANTENNA_c353_S1
*1766 ANTENNA_c354_A
*1767 ANTENNA_c355_B1
*1768 ANTENNA_c357_B
*1769 ANTENNA_c357_Y
*1770 ANTENNA_c359_RESET_B
*1771 ANTENNA_c360_A2
*1772 ANTENNA_c360_B1_N
*1773 ANTENNA_c361_A2
*1774 ANTENNA_c361_A3
*1775 ANTENNA_c364_SCE
*1776 ANTENNA_c365_A1
*1777 ANTENNA_c367_A1
*1778 ANTENNA_c367_A4
*1779 ANTENNA_c367_B1
*1780 ANTENNA_c368_A3
*1781 ANTENNA_c368_S0
*1782 ANTENNA_c368_S1
*1783 ANTENNA_c369_RESET_B
*1784 ANTENNA_c369_SCE
*1785 ANTENNA_c370_A3
*1786 ANTENNA_c371_A3
*1787 ANTENNA_c372_S0
*1788 ANTENNA_c372_S1
*1789 ANTENNA_c373_A2
*1790 ANTENNA_c373_S0
*1791 ANTENNA_c374_A1
*1792 ANTENNA_c374_A3
*1793 ANTENNA_c374_B1
*1794 ANTENNA_c374_X
*1795 ANTENNA_c375_A1
*1796 ANTENNA_c375_A2
*1797 ANTENNA_c375_A3
*1798 ANTENNA_c376_A2
*1799 ANTENNA_c377_D
*1800 ANTENNA_c377_RESET_B
*1801 ANTENNA_c377_SCD
*1802 ANTENNA_c378_A2
*1803 ANTENNA_c379_A2
*1804 ANTENNA_c380_A1
*1805 ANTENNA_c380_A2
*1806 ANTENNA_c380_A3
*1807 ANTENNA_c382_A3
*1808 ANTENNA_c385_B1
*1809 ANTENNA_c386_B1
*1810 ANTENNA_c387_A1
*1811 ANTENNA_c387_A2
*1812 ANTENNA_c388_RESET_B
*1813 ANTENNA_c389_A1
*1814 ANTENNA_c391_A2
*1815 ANTENNA_c391_B1
*1816 ANTENNA_c392_A1
*1817 ANTENNA_c392_A2
*1818 ANTENNA_c392_S0
*1819 ANTENNA_c393_A1
*1820 ANTENNA_c393_S1
*1821 ANTENNA_c393_X
*1822 ANTENNA_c394_A3
*1823 ANTENNA_c394_A4
*1824 ANTENNA_c394_B1
*1825 ANTENNA_c396_B
*1826 ANTENNA_c398_A
*1827 ANTENNA_c398_B
*1828 ANTENNA_c399_A1
*1829 ANTENNA_c399_S0
*1830 ANTENNA_c400_A
*1831 ANTENNA_c400_B
*1832 ANTENNA_c401_B
*1833 ANTENNA_c402_A
*1834 ANTENNA_c404_B
*1835 ANTENNA_c404_Y