*SPEF "ieee 1481-1999"
*DESIGN "netlist_0"
*DATE "18:07:15 Monday July 29, 2024"
*VENDOR "The OpenROAD Project"
*PROGRAM "OpenROAD"
*VERSION "d423155d69de7f683a23f6916ead418a615ad4ad"
*DESIGN_FLOW "NAME_SCOPE LOCAL" "PIN_CAP NONE"
*DIVIDER /
*DELIMITER :
*BUS_DELIMITER []
*T_UNIT 1 NS
*C_UNIT 1 PF
*R_UNIT 1 OHM
*L_UNIT 1 HENRY

*NAME_MAP
*3 clk
*4 in0
*5 in1
*6 in10
*7 in11
*8 in12
*9 in13
*10 in14
*11 in15
*12 in16
*13 in17
*14 in18
*15 in19
*16 in2
*17 in20
*18 in21
*19 in22
*20 in23
*21 in24
*22 in3
*23 in4
*24 in5
*25 in6
*26 in7
*27 in8
*28 in9
*29 out0
*30 out1
*31 out10
*32 out11
*33 out12
*34 out13
*35 out14
*36 out15
*37 out16
*38 out17
*39 out18
*40 out19
*41 out2
*42 out20
*43 out21
*44 out22
*45 out23
*46 out24
*47 out3
*48 out4
*49 out5
*50 out6
*51 out7
*52 out8
*53 out9
*54 rst
*55 clknet_0_clk
*56 clknet_0_net172
*57 clknet_0_net192
*58 clknet_0_net197
*59 clknet_0_net202
*60 clknet_0_net203
*61 clknet_0_net212
*62 clknet_0_net217
*63 clknet_0_net218
*64 clknet_0_net263
*65 clknet_0_net269
*66 clknet_0_net273
*67 clknet_0_net274
*68 clknet_0_net280
*69 clknet_0_net281
*70 clknet_0_net291
*71 clknet_0_net294
*72 clknet_0_net295
*73 clknet_0_net307
*74 clknet_0_net310
*75 clknet_0_net314
*76 clknet_0_net315
*77 clknet_0_net316
*78 clknet_0_net327
*79 clknet_0_net328
*80 clknet_0_net345
*81 clknet_0_net348
*82 clknet_0_net411
*83 clknet_0_net415
*84 clknet_0_net427
*85 clknet_0_net441
*86 clknet_0_net450
*87 clknet_0_net451
*88 clknet_0_net453
*89 clknet_0_net456
*90 clknet_0_net460
*91 clknet_0_net473
*92 clknet_0_net485
*93 clknet_0_net491
*94 clknet_0_net497
*95 clknet_0_net537
*96 clknet_0_net553
*97 clknet_0_net555
*98 clknet_0_net583
*99 clknet_0_net584
*100 clknet_0_net587
*101 clknet_0_net589
*102 clknet_0_net698
*103 clknet_0_net708
*104 clknet_0_net813
*105 clknet_0_net814
*106 clknet_0_net815
*107 clknet_0_net841
*108 clknet_0_net842
*109 clknet_0_net843
*110 clknet_0_net862
*111 clknet_0_net863
*112 clknet_0_net882
*113 clknet_0_net883
*114 clknet_0_net904
*115 clknet_0_net922
*116 clknet_0_net923
*117 clknet_0_net924
*118 clknet_0_net961
*119 clknet_0_net962
*120 clknet_0_net963
*121 clknet_0_net965
*122 clknet_0_net969
*123 clknet_0_net971
*124 clknet_0_net977
*125 clknet_0_net982
*126 clknet_1_0__leaf_net172
*127 clknet_1_0__leaf_net192
*128 clknet_1_0__leaf_net197
*129 clknet_1_0__leaf_net202
*130 clknet_1_0__leaf_net203
*131 clknet_1_0__leaf_net212
*132 clknet_1_0__leaf_net217
*133 clknet_1_0__leaf_net218
*134 clknet_1_0__leaf_net263
*135 clknet_1_0__leaf_net269
*136 clknet_1_0__leaf_net273
*137 clknet_1_0__leaf_net274
*138 clknet_1_0__leaf_net280
*139 clknet_1_0__leaf_net281
*140 clknet_1_0__leaf_net291
*141 clknet_1_0__leaf_net294
*142 clknet_1_0__leaf_net295
*143 clknet_1_0__leaf_net307
*144 clknet_1_0__leaf_net310
*145 clknet_1_0__leaf_net314
*146 clknet_1_0__leaf_net315
*147 clknet_1_0__leaf_net316
*148 clknet_1_0__leaf_net327
*149 clknet_1_0__leaf_net328
*150 clknet_1_0__leaf_net345
*151 clknet_1_0__leaf_net348
*152 clknet_1_0__leaf_net411
*153 clknet_1_0__leaf_net415
*154 clknet_1_0__leaf_net427
*155 clknet_1_0__leaf_net441
*156 clknet_1_0__leaf_net450
*157 clknet_1_0__leaf_net451
*158 clknet_1_0__leaf_net453
*159 clknet_1_0__leaf_net456
*160 clknet_1_0__leaf_net460
*161 clknet_1_0__leaf_net473
*162 clknet_1_0__leaf_net485
*163 clknet_1_0__leaf_net491
*164 clknet_1_0__leaf_net497
*165 clknet_1_0__leaf_net537
*166 clknet_1_0__leaf_net553
*167 clknet_1_0__leaf_net555
*168 clknet_1_0__leaf_net583
*169 clknet_1_0__leaf_net584
*170 clknet_1_0__leaf_net587
*171 clknet_1_0__leaf_net589
*172 clknet_1_0__leaf_net698
*173 clknet_1_0__leaf_net708
*174 clknet_1_0__leaf_net813
*175 clknet_1_0__leaf_net814
*176 clknet_1_0__leaf_net815
*177 clknet_1_0__leaf_net841
*178 clknet_1_0__leaf_net842
*179 clknet_1_0__leaf_net843
*180 clknet_1_0__leaf_net862
*181 clknet_1_0__leaf_net863
*182 clknet_1_0__leaf_net882
*183 clknet_1_0__leaf_net883
*184 clknet_1_0__leaf_net904
*185 clknet_1_0__leaf_net922
*186 clknet_1_0__leaf_net923
*187 clknet_1_0__leaf_net924
*188 clknet_1_0__leaf_net961
*189 clknet_1_0__leaf_net962
*190 clknet_1_0__leaf_net963
*191 clknet_1_0__leaf_net965
*192 clknet_1_0__leaf_net969
*193 clknet_1_0__leaf_net971
*194 clknet_1_0__leaf_net977
*195 clknet_1_0__leaf_net982
*196 clknet_1_1__leaf_net172
*197 clknet_1_1__leaf_net192
*198 clknet_1_1__leaf_net197
*199 clknet_1_1__leaf_net202
*200 clknet_1_1__leaf_net203
*201 clknet_1_1__leaf_net212
*202 clknet_1_1__leaf_net217
*203 clknet_1_1__leaf_net218
*204 clknet_1_1__leaf_net263
*205 clknet_1_1__leaf_net269
*206 clknet_1_1__leaf_net273
*207 clknet_1_1__leaf_net274
*208 clknet_1_1__leaf_net280
*209 clknet_1_1__leaf_net281
*210 clknet_1_1__leaf_net291
*211 clknet_1_1__leaf_net294
*212 clknet_1_1__leaf_net295
*213 clknet_1_1__leaf_net307
*214 clknet_1_1__leaf_net310
*215 clknet_1_1__leaf_net314
*216 clknet_1_1__leaf_net315
*217 clknet_1_1__leaf_net316
*218 clknet_1_1__leaf_net327
*219 clknet_1_1__leaf_net328
*220 clknet_1_1__leaf_net345
*221 clknet_1_1__leaf_net348
*222 clknet_1_1__leaf_net411
*223 clknet_1_1__leaf_net415
*224 clknet_1_1__leaf_net427
*225 clknet_1_1__leaf_net441
*226 clknet_1_1__leaf_net450
*227 clknet_1_1__leaf_net451
*228 clknet_1_1__leaf_net453
*229 clknet_1_1__leaf_net456
*230 clknet_1_1__leaf_net460
*231 clknet_1_1__leaf_net473
*232 clknet_1_1__leaf_net485
*233 clknet_1_1__leaf_net491
*234 clknet_1_1__leaf_net497
*235 clknet_1_1__leaf_net537
*236 clknet_1_1__leaf_net553
*237 clknet_1_1__leaf_net555
*238 clknet_1_1__leaf_net583
*239 clknet_1_1__leaf_net584
*240 clknet_1_1__leaf_net587
*241 clknet_1_1__leaf_net589
*242 clknet_1_1__leaf_net698
*243 clknet_1_1__leaf_net708
*244 clknet_1_1__leaf_net813
*245 clknet_1_1__leaf_net814
*246 clknet_1_1__leaf_net815
*247 clknet_1_1__leaf_net841
*248 clknet_1_1__leaf_net842
*249 clknet_1_1__leaf_net843
*250 clknet_1_1__leaf_net862
*251 clknet_1_1__leaf_net863
*252 clknet_1_1__leaf_net882
*253 clknet_1_1__leaf_net883
*254 clknet_1_1__leaf_net904
*255 clknet_1_1__leaf_net922
*256 clknet_1_1__leaf_net923
*257 clknet_1_1__leaf_net924
*258 clknet_1_1__leaf_net961
*259 clknet_1_1__leaf_net962
*260 clknet_1_1__leaf_net963
*261 clknet_1_1__leaf_net965
*262 clknet_1_1__leaf_net969
*263 clknet_1_1__leaf_net971
*264 clknet_1_1__leaf_net977
*265 clknet_1_1__leaf_net982
*266 clknet_4_0_0_clk
*267 clknet_4_10_0_clk
*268 clknet_4_11_0_clk
*269 clknet_4_12_0_clk
*270 clknet_4_13_0_clk
*271 clknet_4_14_0_clk
*272 clknet_4_15_0_clk
*273 clknet_4_1_0_clk
*274 clknet_4_2_0_clk
*275 clknet_4_3_0_clk
*276 clknet_4_4_0_clk
*277 clknet_4_5_0_clk
*278 clknet_4_6_0_clk
*279 clknet_4_7_0_clk
*280 clknet_4_8_0_clk
*281 clknet_4_9_0_clk
*282 net0
*283 net1
*284 net10
*285 net100
*286 net1000
*287 net1001
*288 net1002
*289 net1003
*290 net1004
*291 net1005
*292 net1006
*293 net1007
*294 net1008
*295 net1009
*296 net101
*297 net1010
*298 net1011
*299 net1012
*300 net1013
*301 net1014
*302 net1015
*303 net1016
*304 net1017
*305 net1018
*306 net1019
*307 net102
*308 net1020
*309 net1021
*310 net1022
*311 net1023
*312 net1024
*313 net1025
*314 net1026
*315 net1027
*316 net1028
*317 net1029
*318 net103
*319 net1030
*320 net1031
*321 net1032
*322 net1033
*323 net1034
*324 net1035
*325 net1036
*326 net1037
*327 net1038
*328 net1039
*329 net104
*330 net1040
*331 net1041
*332 net1042
*333 net1043
*334 net1044
*335 net1045
*336 net1046
*337 net1047
*338 net1048
*339 net1049
*340 net105
*341 net1050
*342 net1051
*343 net1052
*344 net1053
*345 net1054
*346 net1055
*347 net1056
*348 net1057
*349 net1058
*350 net1059
*351 net106
*352 net107
*353 net108
*354 net109
*355 net11
*356 net110
*357 net111
*358 net112
*359 net113
*360 net114
*361 net115
*362 net116
*363 net117
*364 net118
*365 net119
*366 net12
*367 net120
*368 net121
*369 net122
*370 net123
*371 net124
*372 net125
*373 net126
*374 net127
*375 net128
*376 net129
*377 net13
*378 net130
*379 net131
*380 net132
*381 net133
*382 net134
*383 net135
*384 net136
*385 net137
*386 net138
*387 net139
*388 net14
*389 net140
*390 net141
*391 net142
*392 net143
*393 net144
*394 net145
*395 net146
*396 net147
*397 net148
*398 net149
*399 net15
*400 net150
*401 net151
*402 net152
*403 net153
*404 net154
*405 net155
*406 net156
*407 net157
*408 net158
*409 net159
*410 net16
*411 net160
*412 net161
*413 net162
*414 net163
*415 net164
*416 net165
*417 net166
*418 net167
*419 net168
*420 net169
*421 net17
*422 net170
*423 net171
*424 net172
*425 net173
*426 net174
*427 net175
*428 net176
*429 net177
*430 net178
*431 net179
*432 net18
*433 net180
*434 net181
*435 net182
*436 net183
*437 net184
*438 net185
*439 net186
*440 net187
*441 net188
*442 net189
*443 net19
*444 net190
*445 net191
*446 net192
*447 net193
*448 net194
*449 net195
*450 net196
*451 net197
*452 net198
*453 net199
*454 net2
*455 net20
*456 net200
*457 net201
*458 net202
*459 net203
*460 net204
*461 net205
*462 net206
*463 net207
*464 net208
*465 net209
*466 net21
*467 net210
*468 net211
*469 net212
*470 net213
*471 net214
*472 net215
*473 net216
*474 net217
*475 net218
*476 net219
*477 net22
*478 net220
*479 net221
*480 net222
*481 net223
*482 net224
*483 net225
*484 net226
*485 net227
*486 net228
*487 net229
*488 net23
*489 net230
*490 net231
*491 net232
*492 net233
*493 net234
*494 net235
*495 net236
*496 net237
*497 net238
*498 net239
*499 net24
*500 net240
*501 net241
*502 net242
*503 net243
*504 net244
*505 net245
*506 net246
*507 net247
*508 net248
*509 net249
*510 net25
*511 net250
*512 net251
*513 net252
*514 net253
*515 net254
*516 net255
*517 net256
*518 net257
*519 net258
*520 net259
*521 net26
*522 net260
*523 net261
*524 net262
*525 net263
*526 net264
*527 net265
*528 net266
*529 net267
*530 net268
*531 net269
*532 net27
*533 net270
*534 net271
*535 net272
*536 net273
*537 net274
*538 net275
*539 net276
*540 net277
*541 net278
*542 net279
*543 net28
*544 net280
*545 net281
*546 net282
*547 net283
*548 net284
*549 net285
*550 net286
*551 net287
*552 net288
*553 net289
*554 net29
*555 net290
*556 net291
*557 net292
*558 net293
*559 net294
*560 net295
*561 net296
*562 net297
*563 net298
*564 net299
*565 net3
*566 net30
*567 net300
*568 net301
*569 net302
*570 net303
*571 net304
*572 net305
*573 net306
*574 net307
*575 net308
*576 net309
*577 net31
*578 net310
*579 net311
*580 net312
*581 net313
*582 net314
*583 net315
*584 net316
*585 net317
*586 net318
*587 net319
*588 net32
*589 net320
*590 net321
*591 net322
*592 net323
*593 net324
*594 net325
*595 net326
*596 net327
*597 net328
*598 net329
*599 net33
*600 net330
*601 net331
*602 net332
*603 net333
*604 net334
*605 net335
*606 net336
*607 net337
*608 net338
*609 net339
*610 net34
*611 net340
*612 net341
*613 net342
*614 net343
*615 net344
*616 net345
*617 net346
*618 net347
*619 net348
*620 net349
*621 net35
*622 net350
*623 net351
*624 net352
*625 net353
*626 net354
*627 net355
*628 net356
*629 net357
*630 net358
*631 net359
*632 net36
*633 net360
*634 net361
*635 net362
*636 net363
*637 net364
*638 net365
*639 net366
*640 net367
*641 net368
*642 net369
*643 net37
*644 net370
*645 net371
*646 net372
*647 net373
*648 net374
*649 net375
*650 net376
*651 net377
*652 net378
*653 net379
*654 net38
*655 net380
*656 net381
*657 net382
*658 net383
*659 net384
*660 net385
*661 net386
*662 net387
*663 net388
*664 net389
*665 net39
*666 net390
*667 net391
*668 net392
*669 net393
*670 net394
*671 net395
*672 net396
*673 net397
*674 net398
*675 net399
*676 net4
*677 net40
*678 net400
*679 net401
*680 net402
*681 net403
*682 net404
*683 net405
*684 net406
*685 net407
*686 net408
*687 net409
*688 net41
*689 net410
*690 net411
*691 net412
*692 net413
*693 net414
*694 net415
*695 net416
*696 net417
*697 net418
*698 net419
*699 net42
*700 net420
*701 net421
*702 net422
*703 net423
*704 net424
*705 net425
*706 net426
*707 net427
*708 net428
*709 net429
*710 net43
*711 net430
*712 net431
*713 net432
*714 net433
*715 net434
*716 net435
*717 net436
*718 net437
*719 net438
*720 net439
*721 net44
*722 net440
*723 net441
*724 net442
*725 net443
*726 net444
*727 net445
*728 net446
*729 net447
*730 net448
*731 net449
*732 net45
*733 net450
*734 net451
*735 net452
*736 net453
*737 net454
*738 net455
*739 net456
*740 net457
*741 net458
*742 net459
*743 net46
*744 net460
*745 net461
*746 net462
*747 net463
*748 net464
*749 net465
*750 net466
*751 net467
*752 net468
*753 net469
*754 net47
*755 net470
*756 net471
*757 net472
*758 net473
*759 net474
*760 net475
*761 net476
*762 net477
*763 net478
*764 net479
*765 net48
*766 net480
*767 net481
*768 net482
*769 net483
*770 net484
*771 net485
*772 net486
*773 net487
*774 net488
*775 net489
*776 net49
*777 net490
*778 net491
*779 net492
*780 net493
*781 net494
*782 net495
*783 net496
*784 net497
*785 net498
*786 net499
*787 net5
*788 net50
*789 net500
*790 net501
*791 net502
*792 net503
*793 net504
*794 net505
*795 net506
*796 net507
*797 net508
*798 net509
*799 net51
*800 net510
*801 net511
*802 net512
*803 net513
*804 net514
*805 net515
*806 net516
*807 net517
*808 net518
*809 net519
*810 net52
*811 net520
*812 net521
*813 net522
*814 net523
*815 net524
*816 net525
*817 net526
*818 net527
*819 net528
*820 net529
*821 net53
*822 net530
*823 net531
*824 net532
*825 net533
*826 net534
*827 net535
*828 net536
*829 net537
*830 net538
*831 net539
*832 net54
*833 net540
*834 net541
*835 net542
*836 net543
*837 net544
*838 net545
*839 net546
*840 net547
*841 net548
*842 net549
*843 net55
*844 net550
*845 net551
*846 net552
*847 net553
*848 net554
*849 net555
*850 net556
*851 net557
*852 net558
*853 net559
*854 net56
*855 net560
*856 net561
*857 net562
*858 net563
*859 net564
*860 net565
*861 net566
*862 net567
*863 net568
*864 net569
*865 net57
*866 net570
*867 net571
*868 net572
*869 net573
*870 net574
*871 net575
*872 net576
*873 net577
*874 net578
*875 net579
*876 net58
*877 net580
*878 net581
*879 net582
*880 net583
*881 net584
*882 net585
*883 net586
*884 net587
*885 net588
*886 net589
*887 net59
*888 net590
*889 net591
*890 net592
*891 net593
*892 net594
*893 net595
*894 net596
*895 net597
*896 net598
*897 net599
*898 net6
*899 net60
*900 net600
*901 net601
*902 net602
*903 net603
*904 net604
*905 net605
*906 net606
*907 net607
*908 net608
*909 net609
*910 net61
*911 net610
*912 net611
*913 net612
*914 net613
*915 net614
*916 net615
*917 net616
*918 net617
*919 net618
*920 net619
*921 net62
*922 net620
*923 net621
*924 net622
*925 net623
*926 net624
*927 net625
*928 net626
*929 net627
*930 net628
*931 net629
*932 net63
*933 net630
*934 net631
*935 net632
*936 net633
*937 net634
*938 net635
*939 net636
*940 net637
*941 net638
*942 net639
*943 net64
*944 net640
*945 net641
*946 net642
*947 net643
*948 net644
*949 net645
*950 net646
*951 net647
*952 net648
*953 net649
*954 net65
*955 net650
*956 net651
*957 net652
*958 net653
*959 net654
*960 net655
*961 net656
*962 net657
*963 net658
*964 net659
*965 net66
*966 net660
*967 net661
*968 net662
*969 net663
*970 net664
*971 net665
*972 net666
*973 net667
*974 net668
*975 net669
*976 net67
*977 net670
*978 net671
*979 net672
*980 net673
*981 net674
*982 net675
*983 net676
*984 net677
*985 net678
*986 net679
*987 net68
*988 net680
*989 net681
*990 net682
*991 net683
*992 net684
*993 net685
*994 net686
*995 net687
*996 net688
*997 net689
*998 net69
*999 net690
*1000 net691
*1001 net692
*1002 net693
*1003 net694
*1004 net695
*1005 net696
*1006 net697
*1007 net698
*1008 net699
*1009 net7
*1010 net70
*1011 net700
*1012 net701
*1013 net702
*1014 net703
*1015 net704
*1016 net705
*1017 net706
*1018 net707
*1019 net708
*1020 net709
*1021 net71
*1022 net710
*1023 net711
*1024 net712
*1025 net713
*1026 net714
*1027 net715
*1028 net716
*1029 net717
*1030 net718
*1031 net719
*1032 net72
*1033 net720
*1034 net721
*1035 net722
*1036 net723
*1037 net724
*1038 net725
*1039 net726
*1040 net727
*1041 net728
*1042 net729
*1043 net73
*1044 net730
*1045 net731
*1046 net732
*1047 net733
*1048 net734
*1049 net735
*1050 net736
*1051 net737
*1052 net738
*1053 net739
*1054 net74
*1055 net740
*1056 net741
*1057 net742
*1058 net743
*1059 net744
*1060 net745
*1061 net746
*1062 net747
*1063 net748
*1064 net749
*1065 net75
*1066 net750
*1067 net751
*1068 net752
*1069 net753
*1070 net754
*1071 net755
*1072 net756
*1073 net757
*1074 net758
*1075 net759
*1076 net76
*1077 net760
*1078 net761
*1079 net762
*1080 net763
*1081 net764
*1082 net765
*1083 net766
*1084 net767
*1085 net768
*1086 net769
*1087 net77
*1088 net770
*1089 net771
*1090 net772
*1091 net773
*1092 net774
*1093 net775
*1094 net776
*1095 net777
*1096 net778
*1097 net779
*1098 net78
*1099 net780
*1100 net781
*1101 net782
*1102 net783
*1103 net784
*1104 net785
*1105 net786
*1106 net787
*1107 net788
*1108 net789
*1109 net79
*1110 net790
*1111 net791
*1112 net792
*1113 net793
*1114 net794
*1115 net795
*1116 net796
*1117 net797
*1118 net798
*1119 net799
*1120 net8
*1121 net80
*1122 net800
*1123 net801
*1124 net802
*1125 net803
*1126 net804
*1127 net805
*1128 net806
*1129 net807
*1130 net808
*1131 net809
*1132 net81
*1133 net810
*1134 net811
*1135 net812
*1136 net813
*1137 net814
*1138 net815
*1139 net816
*1140 net817
*1141 net818
*1142 net819
*1143 net82
*1144 net820
*1145 net821
*1146 net822
*1147 net823
*1148 net824
*1149 net825
*1150 net826
*1151 net827
*1152 net828
*1153 net829
*1154 net83
*1155 net830
*1156 net831
*1157 net832
*1158 net833
*1159 net834
*1160 net835
*1161 net836
*1162 net837
*1163 net838
*1164 net839
*1165 net84
*1166 net840
*1167 net841
*1168 net842
*1169 net843
*1170 net844
*1171 net845
*1172 net846
*1173 net847
*1174 net848
*1175 net849
*1176 net85
*1177 net850
*1178 net851
*1179 net852
*1180 net853
*1181 net854
*1182 net855
*1183 net856
*1184 net857
*1185 net858
*1186 net859
*1187 net86
*1188 net860
*1189 net861
*1190 net862
*1191 net863
*1192 net864
*1193 net865
*1194 net866
*1195 net867
*1196 net868
*1197 net869
*1198 net87
*1199 net870
*1200 net871
*1201 net872
*1202 net873
*1203 net874
*1204 net875
*1205 net876
*1206 net877
*1207 net878
*1208 net879
*1209 net88
*1210 net880
*1211 net881
*1212 net882
*1213 net883
*1214 net884
*1215 net885
*1216 net886
*1217 net887
*1218 net888
*1219 net889
*1220 net89
*1221 net890
*1222 net891
*1223 net892
*1224 net893
*1225 net894
*1226 net895
*1227 net896
*1228 net897
*1229 net898
*1230 net899
*1231 net9
*1232 net90
*1233 net900
*1234 net901
*1235 net902
*1236 net903
*1237 net904
*1238 net905
*1239 net906
*1240 net907
*1241 net908
*1242 net909
*1243 net91
*1244 net910
*1245 net911
*1246 net912
*1247 net913
*1248 net914
*1249 net915
*1250 net916
*1251 net917
*1252 net918
*1253 net919
*1254 net92
*1255 net920
*1256 net921
*1257 net922
*1258 net923
*1259 net924
*1260 net925
*1261 net926
*1262 net927
*1263 net928
*1264 net929
*1265 net93
*1266 net930
*1267 net931
*1268 net932
*1269 net933
*1270 net934
*1271 net935
*1272 net936
*1273 net937
*1274 net938
*1275 net939
*1276 net94
*1277 net940
*1278 net941
*1279 net942
*1280 net943
*1281 net944
*1282 net945
*1283 net946
*1284 net947
*1285 net948
*1286 net949
*1287 net95
*1288 net950
*1289 net951
*1290 net952
*1291 net953
*1292 net954
*1293 net955
*1294 net956
*1295 net957
*1296 net958
*1297 net959
*1298 net96
*1299 net960
*1300 net961
*1301 net962
*1302 net963
*1303 net964
*1304 net965
*1305 net966
*1306 net967
*1307 net968
*1308 net969
*1309 net97
*1310 net970
*1311 net971
*1312 net972
*1313 net973
*1314 net974
*1315 net975
*1316 net976
*1317 net977
*1318 net978
*1319 net979
*1320 net98
*1321 net980
*1322 net981
*1323 net982
*1324 net983
*1325 net984
*1326 net985
*1327 net986
*1328 net987
*1329 net988
*1330 net989
*1331 net99
*1332 net990
*1333 net991
*1334 net992
*1335 net993
*1336 net994
*1337 net995
*1338 net996
*1339 net997
*1340 net998
*1341 net999
*1342 ANTENNA_1
*1343 ANTENNA_c100_X
*1344 ANTENNA_c101_X
*1345 ANTENNA_c103_A
*1346 ANTENNA_c105_B
*1347 ANTENNA_c106_CLK_N
*1348 ANTENNA_c106_SET_B
*1349 ANTENNA_c107_X
*1350 ANTENNA_c108_A1
*1351 ANTENNA_c108_S0
*1352 ANTENNA_c109_A0
*1353 ANTENNA_c109_S0
*1354 ANTENNA_c112_A
*1355 ANTENNA_c118_B
*1356 ANTENNA_c119_B
*1357 ANTENNA_c120_A
*1358 ANTENNA_c122_B
*1359 ANTENNA_c122_X
*1360 ANTENNA_c124_X
*1361 ANTENNA_c125_A
*1362 ANTENNA_c126_A
*1363 ANTENNA_c126_B
*1364 ANTENNA_c128_C_N
*1365 ANTENNA_c128_D_N
*1366 ANTENNA_c129_B
*1367 ANTENNA_c131_A
*1368 ANTENNA_c132_A
*1369 ANTENNA_c133_A
*1370 ANTENNA_c133_X
*1371 ANTENNA_c134_B
*1372 ANTENNA_c134_C
*1373 ANTENNA_c134_X
*1374 ANTENNA_c135_A
*1375 ANTENNA_c135_X
*1376 ANTENNA_c136_A
*1377 ANTENNA_c136_B
*1378 ANTENNA_c138_B
*1379 ANTENNA_c138_X
*1380 ANTENNA_c139_B
*1381 ANTENNA_c139_X
*1382 ANTENNA_c140_B
*1383 ANTENNA_c142_X
*1384 ANTENNA_c143_B
*1385 ANTENNA_c143_X
*1386 ANTENNA_c144_A
*1387 ANTENNA_c145_A
*1388 ANTENNA_c146_B
*1389 ANTENNA_c146_X
*1390 ANTENNA_c147_A
*1391 ANTENNA_c148_X
*1392 ANTENNA_c149_X
*1393 ANTENNA_c150_A
*1394 ANTENNA_c150_B
*1395 ANTENNA_c150_C
*1396 ANTENNA_c151_B
*1397 ANTENNA_c151_C_N
*1398 ANTENNA_c152_A1
*1399 ANTENNA_c152_A2
*1400 ANTENNA_c152_S1
*1401 ANTENNA_c153_X
*1402 ANTENNA_c154_B
*1403 ANTENNA_c155_B
*1404 ANTENNA_c156_A
*1405 ANTENNA_c157_B
*1406 ANTENNA_c157_X
*1407 ANTENNA_c158_A
*1408 ANTENNA_c158_X
*1409 ANTENNA_c159_B
*1410 ANTENNA_c159_X
*1411 ANTENNA_c160_A
*1412 ANTENNA_c160_B
*1413 ANTENNA_c161_A
*1414 ANTENNA_c161_B
*1415 ANTENNA_c162_B
*1416 ANTENNA_c164_A
*1417 ANTENNA_c165_B
*1418 ANTENNA_c169_Q
*1419 ANTENNA_c169_Q_N
*1420 ANTENNA_c169_SCD
*1421 ANTENNA_c170_C_N
*1422 ANTENNA_c171_A3
*1423 ANTENNA_c171_S0
*1424 ANTENNA_c171_S1
*1425 ANTENNA_c172_A1
*1426 ANTENNA_c172_A2
*1427 ANTENNA_c172_S0
*1428 ANTENNA_c172_X
*1429 ANTENNA_c173_A0
*1430 ANTENNA_c173_A3
*1431 ANTENNA_c173_S1
*1432 ANTENNA_c174_Q
*1433 ANTENNA_c175_A1
*1434 ANTENNA_c176_A
*1435 ANTENNA_c176_B
*1436 ANTENNA_c176_X
*1437 ANTENNA_c177_A
*1438 ANTENNA_c177_X
*1439 ANTENNA_c178_B
*1440 ANTENNA_c179_A
*1441 ANTENNA_c179_X
*1442 ANTENNA_c180_A
*1443 ANTENNA_c180_B
*1444 ANTENNA_c181_B
*1445 ANTENNA_c183_A2
*1446 ANTENNA_c183_D1
*1447 ANTENNA_c184_D
*1448 ANTENNA_c184_RESET_B
*1449 ANTENNA_c184_SCD
*1450 ANTENNA_c184_SCE
*1451 ANTENNA_c186_A
*1452 ANTENNA_c186_B
*1453 ANTENNA_c186_X
*1454 ANTENNA_c187_A
*1455 ANTENNA_c188_A
*1456 ANTENNA_c189_B
*1457 ANTENNA_c190_A1
*1458 ANTENNA_c190_B1
*1459 ANTENNA_c190_C1
*1460 ANTENNA_c191_C1
*1461 ANTENNA_c191_D1
*1462 ANTENNA_c192_Q
*1463 ANTENNA_c192_SCE
*1464 ANTENNA_c193_A
*1465 ANTENNA_c193_D_N
*1466 ANTENNA_c193_X
*1467 ANTENNA_c194_B
*1468 ANTENNA_c194_X
*1469 ANTENNA_c195_A1
*1470 ANTENNA_c195_A3
*1471 ANTENNA_c196_A3
*1472 ANTENNA_c196_S0
*1473 ANTENNA_c197_A1
*1474 ANTENNA_c197_S0
*1475 ANTENNA_c198_A
*1476 ANTENNA_c198_X
*1477 ANTENNA_c199_A
*1478 ANTENNA_c199_B
*1479 ANTENNA_c199_C
*1480 ANTENNA_c201_A
*1481 ANTENNA_c201_B
*1482 ANTENNA_c204_A2
*1483 ANTENNA_c204_C1
*1484 ANTENNA_c205_CLK
*1485 ANTENNA_c205_D
*1486 ANTENNA_c205_SCE
*1487 ANTENNA_c207_CLK
*1488 ANTENNA_c207_Q
*1489 ANTENNA_c207_Q_N
*1490 ANTENNA_c207_SCE
*1491 ANTENNA_c208_B
*1492 ANTENNA_c208_D_N
*1493 ANTENNA_c209_A1
*1494 ANTENNA_c209_A2
*1495 ANTENNA_c209_C1
*1496 ANTENNA_c209_D1
*1497 ANTENNA_c209_X
*1498 ANTENNA_c210_CLK_N
*1499 ANTENNA_c210_Q
*1500 ANTENNA_c210_RESET_B
*1501 ANTENNA_c210_SCE
*1502 ANTENNA_c210_SET_B
*1503 ANTENNA_c211_D_N
*1504 ANTENNA_c212_A2
*1505 ANTENNA_c212_A3
*1506 ANTENNA_c213_CLK_N
*1507 ANTENNA_c213_RESET_B
*1508 ANTENNA_c213_SCD
*1509 ANTENNA_c213_SCE
*1510 ANTENNA_c214_A2
*1511 ANTENNA_c215_CLK
*1512 ANTENNA_c215_D
*1513 ANTENNA_c216_A2
*1514 ANTENNA_c216_A3
*1515 ANTENNA_c217_A2
*1516 ANTENNA_c217_C1
*1517 ANTENNA_c217_X
*1518 ANTENNA_c218_A1
*1519 ANTENNA_c218_A2
*1520 ANTENNA_c218_A3
*1521 ANTENNA_c218_S0
*1522 ANTENNA_c219_A2
*1523 ANTENNA_c221_A
*1524 ANTENNA_c221_C_N
*1525 ANTENNA_c226_X
*1526 ANTENNA_c227_A
*1527 ANTENNA_c228_A
*1528 ANTENNA_c230_A1
*1529 ANTENNA_c230_A2
*1530 ANTENNA_c230_B1
*1531 ANTENNA_c230_C1
*1532 ANTENNA_c230_D1
*1533 ANTENNA_c232_B
*1534 ANTENNA_c233_X
*1535 ANTENNA_c235_B1
*1536 ANTENNA_c235_C1
*1537 ANTENNA_c235_D1
*1538 ANTENNA_c236_A
*1539 ANTENNA_c237_C
*1540 ANTENNA_c238_A
*1541 ANTENNA_c239_C_N
*1542 ANTENNA_c240_C1
*1543 ANTENNA_c241_A1
*1544 ANTENNA_c241_S1
*1545 ANTENNA_c242_C
*1546 ANTENNA_c244_D_N
*1547 ANTENNA_c245_D_N
*1548 ANTENNA_c245_X
*1549 ANTENNA_c247_A3
*1550 ANTENNA_c247_S0
*1551 ANTENNA_c248_A
*1552 ANTENNA_c250_A2
*1553 ANTENNA_c250_S0
*1554 ANTENNA_c250_S1
*1555 ANTENNA_c250_X
*1556 ANTENNA_c251_A3
*1557 ANTENNA_c251_S1
*1558 ANTENNA_c252_C
*1559 ANTENNA_c253_A1
*1560 ANTENNA_c253_A3
*1561 ANTENNA_c253_S0
*1562 ANTENNA_c256_A0
*1563 ANTENNA_c256_A2
*1564 ANTENNA_c256_A3
*1565 ANTENNA_c257_A
*1566 ANTENNA_c257_C
*1567 ANTENNA_c258_A3
*1568 ANTENNA_c258_S0
*1569 ANTENNA_c25_A
*1570 ANTENNA_c25_X
*1571 ANTENNA_c261_X
*1572 ANTENNA_c262_S0
*1573 ANTENNA_c263_A2
*1574 ANTENNA_c264_A
*1575 ANTENNA_c264_B
*1576 ANTENNA_c264_X
*1577 ANTENNA_c265_A
*1578 ANTENNA_c265_B
*1579 ANTENNA_c266_B
*1580 ANTENNA_c267_B
*1581 ANTENNA_c267_X
*1582 ANTENNA_c268_A
*1583 ANTENNA_c268_B
*1584 ANTENNA_c269_A
*1585 ANTENNA_c269_B
*1586 ANTENNA_c269_C
*1587 ANTENNA_c269_X
*1588 ANTENNA_c26_A
*1589 ANTENNA_c26_B
*1590 ANTENNA_c26_X
*1591 ANTENNA_c270_B
*1592 ANTENNA_c270_X
*1593 ANTENNA_c271_A
*1594 ANTENNA_c272_A
*1595 ANTENNA_c272_C
*1596 ANTENNA_c273_A
*1597 ANTENNA_c273_B
*1598 ANTENNA_c274_A
*1599 ANTENNA_c274_B
*1600 ANTENNA_c276_B
*1601 ANTENNA_c279_B
*1602 ANTENNA_c27_A
*1603 ANTENNA_c27_B
*1604 ANTENNA_c27_C
*1605 ANTENNA_c281_B
*1606 ANTENNA_c281_X
*1607 ANTENNA_c282_C
*1608 ANTENNA_c283_B
*1609 ANTENNA_c284_X
*1610 ANTENNA_c285_A
*1611 ANTENNA_c285_D_N
*1612 ANTENNA_c286_C
*1613 ANTENNA_c286_X
*1614 ANTENNA_c287_A
*1615 ANTENNA_c289_A
*1616 ANTENNA_c289_B
*1617 ANTENNA_c289_C
*1618 ANTENNA_c289_X
*1619 ANTENNA_c28_A
*1620 ANTENNA_c28_X
*1621 ANTENNA_c290_B
*1622 ANTENNA_c291_B
*1623 ANTENNA_c293_A
*1624 ANTENNA_c293_B
*1625 ANTENNA_c293_X
*1626 ANTENNA_c295_X
*1627 ANTENNA_c296_B
*1628 ANTENNA_c296_C
*1629 ANTENNA_c296_X
*1630 ANTENNA_c297_A0
*1631 ANTENNA_c297_A2
*1632 ANTENNA_c297_A3
*1633 ANTENNA_c297_S1
*1634 ANTENNA_c299_C
*1635 ANTENNA_c29_A0
*1636 ANTENNA_c29_A1
*1637 ANTENNA_c29_A2
*1638 ANTENNA_c29_A3
*1639 ANTENNA_c29_S0
*1640 ANTENNA_c29_S1
*1641 ANTENNA_c29_X
*1642 ANTENNA_c300_RESET_B
*1643 ANTENNA_c300_SCD
*1644 ANTENNA_c301_C_N
*1645 ANTENNA_c301_X
*1646 ANTENNA_c302_B
*1647 ANTENNA_c304_X
*1648 ANTENNA_c305_A3
*1649 ANTENNA_c308_B
*1650 ANTENNA_c309_C
*1651 ANTENNA_c30_A
*1652 ANTENNA_c30_B
*1653 ANTENNA_c315_X
*1654 ANTENNA_c316_CLK_N
*1655 ANTENNA_c316_RESET_B
*1656 ANTENNA_c316_SCE
*1657 ANTENNA_c316_SET_B
*1658 ANTENNA_c319_A
*1659 ANTENNA_c319_B
*1660 ANTENNA_c319_C
*1661 ANTENNA_c31_B
*1662 ANTENNA_c31_X
*1663 ANTENNA_c321_D_N
*1664 ANTENNA_c322_Q
*1665 ANTENNA_c322_Q_N
*1666 ANTENNA_c322_SCE
*1667 ANTENNA_c322_SET_B
*1668 ANTENNA_c324_A2
*1669 ANTENNA_c324_B1
*1670 ANTENNA_c324_C1
*1671 ANTENNA_c324_D1
*1672 ANTENNA_c325_A1
*1673 ANTENNA_c325_A3
*1674 ANTENNA_c325_S1
*1675 ANTENNA_c326_A0
*1676 ANTENNA_c326_A1
*1677 ANTENNA_c326_A3
*1678 ANTENNA_c326_S0
*1679 ANTENNA_c326_S1
*1680 ANTENNA_c327_Q
*1681 ANTENNA_c327_SCD
*1682 ANTENNA_c327_SCE
*1683 ANTENNA_c328_A1
*1684 ANTENNA_c328_S0
*1685 ANTENNA_c329_A1
*1686 ANTENNA_c329_A2
*1687 ANTENNA_c329_A3
*1688 ANTENNA_c329_S0
*1689 ANTENNA_c32_A
*1690 ANTENNA_c32_B
*1691 ANTENNA_c32_X
*1692 ANTENNA_c333_B
*1693 ANTENNA_c333_C
*1694 ANTENNA_c334_A0
*1695 ANTENNA_c334_A1
*1696 ANTENNA_c334_A2
*1697 ANTENNA_c334_S0
*1698 ANTENNA_c335_A1
*1699 ANTENNA_c335_A2
*1700 ANTENNA_c337_A0
*1701 ANTENNA_c337_A2
*1702 ANTENNA_c339_A2
*1703 ANTENNA_c339_B1
*1704 ANTENNA_c33_B
*1705 ANTENNA_c33_X
*1706 ANTENNA_c341_B
*1707 ANTENNA_c341_C_N
*1708 ANTENNA_c342_CLK
*1709 ANTENNA_c342_SCD
*1710 ANTENNA_c342_SCE
*1711 ANTENNA_c343_CLK_N
*1712 ANTENNA_c343_Q_N
*1713 ANTENNA_c343_SCD
*1714 ANTENNA_c344_CLK_N
*1715 ANTENNA_c344_D
*1716 ANTENNA_c344_SCE
*1717 ANTENNA_c345_B
*1718 ANTENNA_c345_C
*1719 ANTENNA_c345_X
*1720 ANTENNA_c347_B
*1721 ANTENNA_c347_C_N
*1722 ANTENNA_c347_D_N
*1723 ANTENNA_c348_A2
*1724 ANTENNA_c348_S0
*1725 ANTENNA_c34_B
*1726 ANTENNA_c351_CLK
*1727 ANTENNA_c351_SET_B
*1728 ANTENNA_c353_B
*1729 ANTENNA_c353_C
*1730 ANTENNA_c354_X
*1731 ANTENNA_c355_CLK
*1732 ANTENNA_c355_D
*1733 ANTENNA_c355_SCD
*1734 ANTENNA_c355_SET_B
*1735 ANTENNA_c357_CLK
*1736 ANTENNA_c357_SET_B
*1737 ANTENNA_c35_B
*1738 ANTENNA_c35_X
*1739 ANTENNA_c362_A
*1740 ANTENNA_c362_B
*1741 ANTENNA_c365_C
*1742 ANTENNA_c366_CLK
*1743 ANTENNA_c366_SCE
*1744 ANTENNA_c366_SET_B
*1745 ANTENNA_c367_B
*1746 ANTENNA_c367_D_N
*1747 ANTENNA_c368_C1
*1748 ANTENNA_c369_D1
*1749 ANTENNA_c36_C
*1750 ANTENNA_c370_S0
*1751 ANTENNA_c370_S1
*1752 ANTENNA_c371_CLK_N
*1753 ANTENNA_c371_Q_N
*1754 ANTENNA_c371_SCD
*1755 ANTENNA_c371_SET_B
*1756 ANTENNA_c372_CLK_N
*1757 ANTENNA_c372_SCE
*1758 ANTENNA_c373_B1
*1759 ANTENNA_c374_A0
*1760 ANTENNA_c374_A1
*1761 ANTENNA_c374_A3
*1762 ANTENNA_c375_A1
*1763 ANTENNA_c375_A2
*1764 ANTENNA_c375_C1
*1765 ANTENNA_c376_D_N
*1766 ANTENNA_c377_A1
*1767 ANTENNA_c377_A2
*1768 ANTENNA_c377_C1
*1769 ANTENNA_c377_D1
*1770 ANTENNA_c378_A
*1771 ANTENNA_c378_B
*1772 ANTENNA_c378_C_N
*1773 ANTENNA_c379_B
*1774 ANTENNA_c379_X
*1775 ANTENNA_c37_B
*1776 ANTENNA_c380_A0
*1777 ANTENNA_c380_A1
*1778 ANTENNA_c380_A2
*1779 ANTENNA_c380_S0
*1780 ANTENNA_c380_S1
*1781 ANTENNA_c381_B1
*1782 ANTENNA_c382_D_N
*1783 ANTENNA_c383_A1
*1784 ANTENNA_c383_A2
*1785 ANTENNA_c383_C1
*1786 ANTENNA_c383_D1
*1787 ANTENNA_c384_B
*1788 ANTENNA_c384_C_N
*1789 ANTENNA_c385_A1
*1790 ANTENNA_c385_A2
*1791 ANTENNA_c385_S0
*1792 ANTENNA_c386_CLK
*1793 ANTENNA_c386_RESET_B
*1794 ANTENNA_c386_SCD
*1795 ANTENNA_c386_SET_B
*1796 ANTENNA_c387_A3
*1797 ANTENNA_c388_A
*1798 ANTENNA_c38_A1
*1799 ANTENNA_c38_A2
*1800 ANTENNA_c38_C1
*1801 ANTENNA_c38_D1
*1802 ANTENNA_c390_CLK_N
*1803 ANTENNA_c390_SET_B
*1804 ANTENNA_c391_A2
*1805 ANTENNA_c391_S0
*1806 ANTENNA_c392_S0
*1807 ANTENNA_c392_S1
*1808 ANTENNA_c393_A1
*1809 ANTENNA_c393_S1
*1810 ANTENNA_c394_A0
*1811 ANTENNA_c394_S0
*1812 ANTENNA_c395_A2
*1813 ANTENNA_c395_S0
*1814 ANTENNA_c396_A
*1815 ANTENNA_c397_B