*SPEF "ieee 1481-1999"
*DESIGN "netlist_1"
*DATE "15:36:13 Saturday August 17, 2024"
*VENDOR "The OpenROAD Project"
*PROGRAM "OpenROAD"
*VERSION "d423155d69de7f683a23f6916ead418a615ad4ad"
*DESIGN_FLOW "NAME_SCOPE LOCAL" "PIN_CAP NONE"
*DIVIDER /
*DELIMITER :
*BUS_DELIMITER []
*T_UNIT 1 NS
*C_UNIT 1 PF
*R_UNIT 1 OHM
*L_UNIT 1 HENRY

*NAME_MAP
*3 clk
*4 in0
*5 in1
*6 in10
*7 in11
*8 in12
*9 in13
*10 in14
*11 in15
*12 in16
*13 in17
*14 in18
*15 in19
*16 in2
*17 in20
*18 in21
*19 in22
*20 in23
*21 in24
*22 in3
*23 in4
*24 in5
*25 in6
*26 in7
*27 in8
*28 in9
*29 out0
*30 out1
*31 out10
*32 out11
*33 out12
*34 out13
*35 out14
*36 out15
*37 out16
*38 out17
*39 out18
*40 out19
*41 out2
*42 out20
*43 out21
*44 out22
*45 out23
*46 out24
*47 out3
*48 out4
*49 out5
*50 out6
*51 out7
*52 out8
*53 out9
*54 rst
*55 clknet_0_clk
*56 clknet_0_net129
*57 clknet_0_net130
*58 clknet_0_net135
*59 clknet_0_net140
*60 clknet_0_net142
*61 clknet_0_net149
*62 clknet_0_net150
*63 clknet_0_net151
*64 clknet_0_net153
*65 clknet_0_net156
*66 clknet_0_net162
*67 clknet_0_net221
*68 clknet_0_net229
*69 clknet_0_net272
*70 clknet_0_net277
*71 clknet_0_net287
*72 clknet_0_net290
*73 clknet_0_net298
*74 clknet_0_net300
*75 clknet_0_net301
*76 clknet_0_net306
*77 clknet_0_net308
*78 clknet_0_net333
*79 clknet_0_net334
*80 clknet_0_net335
*81 clknet_0_net336
*82 clknet_0_net337
*83 clknet_0_net387
*84 clknet_0_net393
*85 clknet_0_net396
*86 clknet_0_net398
*87 clknet_0_net405
*88 clknet_0_net423
*89 clknet_0_net429
*90 clknet_0_net449
*91 clknet_0_net452
*92 clknet_0_net465
*93 clknet_0_net508
*94 clknet_0_net511
*95 clknet_0_net517
*96 clknet_0_net518
*97 clknet_0_net519
*98 clknet_0_net523
*99 clknet_0_net524
*100 clknet_0_net525
*101 clknet_0_net527
*102 clknet_0_net569
*103 clknet_0_net575
*104 clknet_0_net595
*105 clknet_0_net620
*106 clknet_0_net621
*107 clknet_0_net627
*108 clknet_0_net629
*109 clknet_0_net652
*110 clknet_0_net656
*111 clknet_0_net784
*112 clknet_0_net789
*113 clknet_0_net797
*114 clknet_0_net800
*115 clknet_1_0__leaf_net129
*116 clknet_1_0__leaf_net130
*117 clknet_1_0__leaf_net135
*118 clknet_1_0__leaf_net140
*119 clknet_1_0__leaf_net142
*120 clknet_1_0__leaf_net149
*121 clknet_1_0__leaf_net150
*122 clknet_1_0__leaf_net151
*123 clknet_1_0__leaf_net153
*124 clknet_1_0__leaf_net156
*125 clknet_1_0__leaf_net162
*126 clknet_1_0__leaf_net221
*127 clknet_1_0__leaf_net229
*128 clknet_1_0__leaf_net272
*129 clknet_1_0__leaf_net277
*130 clknet_1_0__leaf_net287
*131 clknet_1_0__leaf_net290
*132 clknet_1_0__leaf_net298
*133 clknet_1_0__leaf_net300
*134 clknet_1_0__leaf_net301
*135 clknet_1_0__leaf_net306
*136 clknet_1_0__leaf_net308
*137 clknet_1_0__leaf_net333
*138 clknet_1_0__leaf_net334
*139 clknet_1_0__leaf_net335
*140 clknet_1_0__leaf_net336
*141 clknet_1_0__leaf_net337
*142 clknet_1_0__leaf_net387
*143 clknet_1_0__leaf_net393
*144 clknet_1_0__leaf_net396
*145 clknet_1_0__leaf_net398
*146 clknet_1_0__leaf_net405
*147 clknet_1_0__leaf_net423
*148 clknet_1_0__leaf_net429
*149 clknet_1_0__leaf_net449
*150 clknet_1_0__leaf_net452
*151 clknet_1_0__leaf_net465
*152 clknet_1_0__leaf_net508
*153 clknet_1_0__leaf_net511
*154 clknet_1_0__leaf_net517
*155 clknet_1_0__leaf_net518
*156 clknet_1_0__leaf_net519
*157 clknet_1_0__leaf_net523
*158 clknet_1_0__leaf_net524
*159 clknet_1_0__leaf_net525
*160 clknet_1_0__leaf_net527
*161 clknet_1_0__leaf_net569
*162 clknet_1_0__leaf_net575
*163 clknet_1_0__leaf_net595
*164 clknet_1_0__leaf_net620
*165 clknet_1_0__leaf_net621
*166 clknet_1_0__leaf_net627
*167 clknet_1_0__leaf_net629
*168 clknet_1_0__leaf_net652
*169 clknet_1_0__leaf_net656
*170 clknet_1_0__leaf_net784
*171 clknet_1_0__leaf_net789
*172 clknet_1_0__leaf_net797
*173 clknet_1_0__leaf_net800
*174 clknet_1_1__leaf_net129
*175 clknet_1_1__leaf_net130
*176 clknet_1_1__leaf_net135
*177 clknet_1_1__leaf_net140
*178 clknet_1_1__leaf_net142
*179 clknet_1_1__leaf_net149
*180 clknet_1_1__leaf_net150
*181 clknet_1_1__leaf_net151
*182 clknet_1_1__leaf_net153
*183 clknet_1_1__leaf_net156
*184 clknet_1_1__leaf_net162
*185 clknet_1_1__leaf_net221
*186 clknet_1_1__leaf_net229
*187 clknet_1_1__leaf_net272
*188 clknet_1_1__leaf_net277
*189 clknet_1_1__leaf_net287
*190 clknet_1_1__leaf_net290
*191 clknet_1_1__leaf_net298
*192 clknet_1_1__leaf_net300
*193 clknet_1_1__leaf_net301
*194 clknet_1_1__leaf_net306
*195 clknet_1_1__leaf_net308
*196 clknet_1_1__leaf_net333
*197 clknet_1_1__leaf_net334
*198 clknet_1_1__leaf_net335
*199 clknet_1_1__leaf_net336
*200 clknet_1_1__leaf_net337
*201 clknet_1_1__leaf_net387
*202 clknet_1_1__leaf_net393
*203 clknet_1_1__leaf_net396
*204 clknet_1_1__leaf_net398
*205 clknet_1_1__leaf_net405
*206 clknet_1_1__leaf_net423
*207 clknet_1_1__leaf_net429
*208 clknet_1_1__leaf_net449
*209 clknet_1_1__leaf_net452
*210 clknet_1_1__leaf_net465
*211 clknet_1_1__leaf_net508
*212 clknet_1_1__leaf_net511
*213 clknet_1_1__leaf_net517
*214 clknet_1_1__leaf_net518
*215 clknet_1_1__leaf_net519
*216 clknet_1_1__leaf_net523
*217 clknet_1_1__leaf_net524
*218 clknet_1_1__leaf_net525
*219 clknet_1_1__leaf_net527
*220 clknet_1_1__leaf_net569
*221 clknet_1_1__leaf_net575
*222 clknet_1_1__leaf_net595
*223 clknet_1_1__leaf_net620
*224 clknet_1_1__leaf_net621
*225 clknet_1_1__leaf_net627
*226 clknet_1_1__leaf_net629
*227 clknet_1_1__leaf_net652
*228 clknet_1_1__leaf_net656
*229 clknet_1_1__leaf_net784
*230 clknet_1_1__leaf_net789
*231 clknet_1_1__leaf_net797
*232 clknet_1_1__leaf_net800
*233 clknet_2_0__leaf_clk
*234 clknet_2_1__leaf_clk
*235 clknet_2_2__leaf_clk
*236 clknet_2_3__leaf_clk
*237 clknet_leaf_0_clk
*238 clknet_leaf_10_clk
*239 clknet_leaf_11_clk
*240 clknet_leaf_12_clk
*241 clknet_leaf_13_clk
*242 clknet_leaf_14_clk
*243 clknet_leaf_15_clk
*244 clknet_leaf_16_clk
*245 clknet_leaf_17_clk
*246 clknet_leaf_18_clk
*247 clknet_leaf_19_clk
*248 clknet_leaf_1_clk
*249 clknet_leaf_20_clk
*250 clknet_leaf_21_clk
*251 clknet_leaf_22_clk
*252 clknet_leaf_23_clk
*253 clknet_leaf_24_clk
*254 clknet_leaf_25_clk
*255 clknet_leaf_26_clk
*256 clknet_leaf_27_clk
*257 clknet_leaf_28_clk
*258 clknet_leaf_29_clk
*259 clknet_leaf_2_clk
*260 clknet_leaf_30_clk
*261 clknet_leaf_31_clk
*262 clknet_leaf_32_clk
*263 clknet_leaf_33_clk
*264 clknet_leaf_3_clk
*265 clknet_leaf_4_clk
*266 clknet_leaf_5_clk
*267 clknet_leaf_6_clk
*268 clknet_leaf_7_clk
*269 clknet_leaf_8_clk
*270 clknet_leaf_9_clk
*271 net0
*272 net1
*273 net10
*274 net100
*275 net101
*276 net102
*277 net103
*278 net104
*279 net105
*280 net106
*281 net107
*282 net108
*283 net109
*284 net11
*285 net110
*286 net111
*287 net112
*288 net113
*289 net114
*290 net115
*291 net116
*292 net117
*293 net118
*294 net119
*295 net12
*296 net120
*297 net121
*298 net122
*299 net123
*300 net124
*301 net125
*302 net126
*303 net127
*304 net128
*305 net129
*306 net13
*307 net130
*308 net131
*309 net132
*310 net133
*311 net134
*312 net135
*313 net136
*314 net137
*315 net138
*316 net139
*317 net14
*318 net140
*319 net141
*320 net142
*321 net143
*322 net144
*323 net145
*324 net146
*325 net147
*326 net148
*327 net149
*328 net15
*329 net150
*330 net151
*331 net152
*332 net153
*333 net154
*334 net155
*335 net156
*336 net157
*337 net158
*338 net159
*339 net16
*340 net160
*341 net161
*342 net162
*343 net163
*344 net164
*345 net165
*346 net166
*347 net167
*348 net168
*349 net169
*350 net17
*351 net170
*352 net171
*353 net172
*354 net173
*355 net174
*356 net175
*357 net176
*358 net177
*359 net178
*360 net179
*361 net18
*362 net180
*363 net181
*364 net182
*365 net183
*366 net184
*367 net185
*368 net186
*369 net187
*370 net188
*371 net189
*372 net19
*373 net190
*374 net191
*375 net192
*376 net193
*377 net194
*378 net195
*379 net196
*380 net197
*381 net198
*382 net199
*383 net2
*384 net20
*385 net200
*386 net201
*387 net202
*388 net203
*389 net204
*390 net205
*391 net206
*392 net207
*393 net208
*394 net209
*395 net21
*396 net210
*397 net211
*398 net212
*399 net213
*400 net214
*401 net215
*402 net216
*403 net217
*404 net218
*405 net219
*406 net22
*407 net220
*408 net221
*409 net222
*410 net223
*411 net224
*412 net225
*413 net226
*414 net227
*415 net228
*416 net229
*417 net23
*418 net230
*419 net231
*420 net232
*421 net233
*422 net234
*423 net235
*424 net236
*425 net237
*426 net238
*427 net239
*428 net24
*429 net240
*430 net241
*431 net242
*432 net243
*433 net244
*434 net245
*435 net246
*436 net247
*437 net248
*438 net249
*439 net25
*440 net250
*441 net251
*442 net252
*443 net253
*444 net254
*445 net255
*446 net256
*447 net257
*448 net258
*449 net259
*450 net26
*451 net260
*452 net261
*453 net262
*454 net263
*455 net264
*456 net265
*457 net266
*458 net267
*459 net268
*460 net269
*461 net27
*462 net270
*463 net271
*464 net272
*465 net273
*466 net274
*467 net275
*468 net276
*469 net277
*470 net278
*471 net279
*472 net28
*473 net280
*474 net281
*475 net282
*476 net283
*477 net284
*478 net285
*479 net286
*480 net287
*481 net288
*482 net289
*483 net29
*484 net290
*485 net291
*486 net292
*487 net293
*488 net294
*489 net295
*490 net296
*491 net297
*492 net298
*493 net299
*494 net3
*495 net30
*496 net300
*497 net301
*498 net302
*499 net303
*500 net304
*501 net305
*502 net306
*503 net307
*504 net308
*505 net309
*506 net31
*507 net310
*508 net311
*509 net312
*510 net313
*511 net314
*512 net315
*513 net316
*514 net317
*515 net318
*516 net319
*517 net32
*518 net320
*519 net321
*520 net322
*521 net323
*522 net324
*523 net325
*524 net326
*525 net327
*526 net328
*527 net329
*528 net33
*529 net330
*530 net331
*531 net332
*532 net333
*533 net334
*534 net335
*535 net336
*536 net337
*537 net338
*538 net339
*539 net34
*540 net340
*541 net341
*542 net342
*543 net343
*544 net344
*545 net345
*546 net346
*547 net347
*548 net348
*549 net349
*550 net35
*551 net350
*552 net351
*553 net352
*554 net353
*555 net354
*556 net355
*557 net356
*558 net357
*559 net358
*560 net359
*561 net36
*562 net360
*563 net361
*564 net362
*565 net363
*566 net364
*567 net365
*568 net366
*569 net367
*570 net368
*571 net369
*572 net37
*573 net370
*574 net371
*575 net372
*576 net373
*577 net374
*578 net375
*579 net376
*580 net377
*581 net378
*582 net379
*583 net38
*584 net380
*585 net381
*586 net382
*587 net383
*588 net384
*589 net385
*590 net386
*591 net387
*592 net388
*593 net389
*594 net39
*595 net390
*596 net391
*597 net392
*598 net393
*599 net394
*600 net395
*601 net396
*602 net397
*603 net398
*604 net399
*605 net4
*606 net40
*607 net400
*608 net401
*609 net402
*610 net403
*611 net404
*612 net405
*613 net406
*614 net407
*615 net408
*616 net409
*617 net41
*618 net410
*619 net411
*620 net412
*621 net413
*622 net414
*623 net415
*624 net416
*625 net417
*626 net418
*627 net419
*628 net42
*629 net420
*630 net421
*631 net422
*632 net423
*633 net424
*634 net425
*635 net426
*636 net427
*637 net428
*638 net429
*639 net43
*640 net430
*641 net431
*642 net432
*643 net433
*644 net434
*645 net435
*646 net436
*647 net437
*648 net438
*649 net439
*650 net44
*651 net440
*652 net441
*653 net442
*654 net443
*655 net444
*656 net445
*657 net446
*658 net447
*659 net448
*660 net449
*661 net45
*662 net450
*663 net451
*664 net452
*665 net453
*666 net454
*667 net455
*668 net456
*669 net457
*670 net458
*671 net459
*672 net46
*673 net460
*674 net461
*675 net462
*676 net463
*677 net464
*678 net465
*679 net466
*680 net467
*681 net468
*682 net469
*683 net47
*684 net470
*685 net471
*686 net472
*687 net473
*688 net474
*689 net475
*690 net476
*691 net477
*692 net478
*693 net479
*694 net48
*695 net480
*696 net481
*697 net482
*698 net483
*699 net484
*700 net485
*701 net486
*702 net487
*703 net488
*704 net489
*705 net49
*706 net490
*707 net491
*708 net492
*709 net493
*710 net494
*711 net495
*712 net496
*713 net497
*714 net498
*715 net499
*716 net5
*717 net50
*718 net500
*719 net501
*720 net502
*721 net503
*722 net504
*723 net505
*724 net506
*725 net507
*726 net508
*727 net509
*728 net51
*729 net510
*730 net511
*731 net512
*732 net513
*733 net514
*734 net515
*735 net516
*736 net517
*737 net518
*738 net519
*739 net52
*740 net520
*741 net521
*742 net522
*743 net523
*744 net524
*745 net525
*746 net526
*747 net527
*748 net528
*749 net529
*750 net53
*751 net530
*752 net531
*753 net532
*754 net533
*755 net534
*756 net535
*757 net536
*758 net537
*759 net538
*760 net539
*761 net54
*762 net540
*763 net541
*764 net542
*765 net543
*766 net544
*767 net545
*768 net546
*769 net547
*770 net548
*771 net549
*772 net55
*773 net550
*774 net551
*775 net552
*776 net553
*777 net554
*778 net555
*779 net556
*780 net557
*781 net558
*782 net559
*783 net56
*784 net560
*785 net561
*786 net562
*787 net563
*788 net564
*789 net565
*790 net566
*791 net567
*792 net568
*793 net569
*794 net57
*795 net570
*796 net571
*797 net572
*798 net573
*799 net574
*800 net575
*801 net576
*802 net577
*803 net578
*804 net579
*805 net58
*806 net580
*807 net581
*808 net582
*809 net583
*810 net584
*811 net585
*812 net586
*813 net587
*814 net588
*815 net589
*816 net59
*817 net590
*818 net591
*819 net592
*820 net593
*821 net594
*822 net595
*823 net596
*824 net597
*825 net598
*826 net599
*827 net6
*828 net60
*829 net600
*830 net601
*831 net602
*832 net603
*833 net604
*834 net605
*835 net606
*836 net607
*837 net608
*838 net609
*839 net61
*840 net610
*841 net611
*842 net612
*843 net613
*844 net614
*845 net615
*846 net616
*847 net617
*848 net618
*849 net619
*850 net62
*851 net620
*852 net621
*853 net622
*854 net623
*855 net624
*856 net625
*857 net626
*858 net627
*859 net628
*860 net629
*861 net63
*862 net630
*863 net631
*864 net632
*865 net633
*866 net634
*867 net635
*868 net636
*869 net637
*870 net638
*871 net639
*872 net64
*873 net640
*874 net641
*875 net642
*876 net643
*877 net644
*878 net645
*879 net646
*880 net647
*881 net648
*882 net649
*883 net65
*884 net650
*885 net651
*886 net652
*887 net653
*888 net654
*889 net655
*890 net656
*891 net657
*892 net658
*893 net659
*894 net66
*895 net660
*896 net661
*897 net662
*898 net663
*899 net664
*900 net665
*901 net666
*902 net667
*903 net668
*904 net669
*905 net67
*906 net670
*907 net671
*908 net672
*909 net673
*910 net674
*911 net675
*912 net676
*913 net677
*914 net678
*915 net679
*916 net68
*917 net680
*918 net681
*919 net682
*920 net683
*921 net684
*922 net685
*923 net686
*924 net687
*925 net688
*926 net689
*927 net69
*928 net690
*929 net691
*930 net692
*931 net693
*932 net694
*933 net695
*934 net696
*935 net697
*936 net698
*937 net699
*938 net7
*939 net70
*940 net700
*941 net701
*942 net702
*943 net703
*944 net704
*945 net705
*946 net706
*947 net707
*948 net708
*949 net709
*950 net71
*951 net710
*952 net711
*953 net712
*954 net713
*955 net714
*956 net715
*957 net716
*958 net717
*959 net718
*960 net719
*961 net72
*962 net720
*963 net721
*964 net722
*965 net723
*966 net724
*967 net725
*968 net726
*969 net727
*970 net728
*971 net729
*972 net73
*973 net730
*974 net731
*975 net732
*976 net733
*977 net734
*978 net735
*979 net736
*980 net737
*981 net738
*982 net739
*983 net74
*984 net740
*985 net741
*986 net742
*987 net743
*988 net744
*989 net745
*990 net746
*991 net747
*992 net748
*993 net749
*994 net75
*995 net750
*996 net751
*997 net752
*998 net753
*999 net754
*1000 net755
*1001 net756
*1002 net757
*1003 net758
*1004 net759
*1005 net76
*1006 net760
*1007 net761
*1008 net762
*1009 net763
*1010 net764
*1011 net765
*1012 net766
*1013 net767
*1014 net768
*1015 net769
*1016 net77
*1017 net770
*1018 net771
*1019 net772
*1020 net773
*1021 net774
*1022 net775
*1023 net776
*1024 net777
*1025 net778
*1026 net779
*1027 net78
*1028 net780
*1029 net781
*1030 net782
*1031 net783
*1032 net784
*1033 net785
*1034 net786
*1035 net787
*1036 net788
*1037 net789
*1038 net79
*1039 net790
*1040 net791
*1041 net792
*1042 net793
*1043 net794
*1044 net795
*1045 net796
*1046 net797
*1047 net798
*1048 net799
*1049 net8
*1050 net80
*1051 net800
*1052 net801
*1053 net802
*1054 net803
*1055 net804
*1056 net805
*1057 net806
*1058 net807
*1059 net808
*1060 net809
*1061 net81
*1062 net810
*1063 net812
*1064 net813
*1065 net814
*1066 net815
*1067 net816
*1068 net817
*1069 net818
*1070 net819
*1071 net82
*1072 net820
*1073 net821
*1074 net822
*1075 net823
*1076 net824
*1077 net825
*1078 net826
*1079 net827
*1080 net828
*1081 net829
*1082 net83
*1083 net830
*1084 net831
*1085 net832
*1086 net833
*1087 net834
*1088 net835
*1089 net836
*1090 net837
*1091 net838
*1092 net839
*1093 net84
*1094 net840
*1095 net841
*1096 net842
*1097 net843
*1098 net844
*1099 net845
*1100 net846
*1101 net847
*1102 net848
*1103 net849
*1104 net85
*1105 net850
*1106 net851
*1107 net852
*1108 net853
*1109 net854
*1110 net855
*1111 net856
*1112 net857
*1113 net858
*1114 net859
*1115 net86
*1116 net860
*1117 net861
*1118 net862
*1119 net863
*1120 net864
*1121 net865
*1122 net866
*1123 net867
*1124 net868
*1125 net869
*1126 net87
*1127 net870
*1128 net871
*1129 net872
*1130 net873
*1131 net874
*1132 net875
*1133 net876
*1134 net877
*1135 net878
*1136 net879
*1137 net88
*1138 net880
*1139 net881
*1140 net882
*1141 net883
*1142 net884
*1143 net885
*1144 net886
*1145 net887
*1146 net888
*1147 net889
*1148 net89
*1149 net890
*1150 net891
*1151 net892
*1152 net893
*1153 net894
*1154 net895
*1155 net896
*1156 net897
*1157 net898
*1158 net899
*1159 net9
*1160 net90
*1161 net900
*1162 net901
*1163 net902
*1164 net903
*1165 net904
*1166 net905
*1167 net906
*1168 net907
*1169 net908
*1170 net909
*1171 net91
*1172 net910
*1173 net911
*1174 net92
*1175 net93
*1176 net94
*1177 net95
*1178 net96
*1179 net97
*1180 net98
*1181 net99
*1182 ANTENNA_c102_S1
*1183 ANTENNA_c102_X
*1184 ANTENNA_c104_A1
*1185 ANTENNA_c104_X
*1186 ANTENNA_c105_D
*1187 ANTENNA_c106_B
*1188 ANTENNA_c111_A1
*1189 ANTENNA_c111_S0
*1190 ANTENNA_c111_S1
*1191 ANTENNA_c113_Y
*1192 ANTENNA_c114_B
*1193 ANTENNA_c116_B
*1194 ANTENNA_c118_B1_N
*1195 ANTENNA_c122_Q
*1196 ANTENNA_c126_A
*1197 ANTENNA_c128_A
*1198 ANTENNA_c128_B
*1199 ANTENNA_c129_A
*1200 ANTENNA_c129_X
*1201 ANTENNA_c130_A
*1202 ANTENNA_c131_A
*1203 ANTENNA_c131_X
*1204 ANTENNA_c132_A
*1205 ANTENNA_c132_B
*1206 ANTENNA_c133_A
*1207 ANTENNA_c133_B
*1208 ANTENNA_c133_Y
*1209 ANTENNA_c134_A
*1210 ANTENNA_c134_B
*1211 ANTENNA_c135_B
*1212 ANTENNA_c135_Y
*1213 ANTENNA_c136_A
*1214 ANTENNA_c136_B
*1215 ANTENNA_c136_Y
*1216 ANTENNA_c137_D
*1217 ANTENNA_c137_Q
*1218 ANTENNA_c138_A
*1219 ANTENNA_c138_Y
*1220 ANTENNA_c139_A
*1221 ANTENNA_c139_B
*1222 ANTENNA_c140_A
*1223 ANTENNA_c140_X
*1224 ANTENNA_c141_GCLK
*1225 ANTENNA_c141_SCE
*1226 ANTENNA_c142_A
*1227 ANTENNA_c142_B
*1228 ANTENNA_c143_A0
*1229 ANTENNA_c143_A2
*1230 ANTENNA_c143_A3
*1231 ANTENNA_c143_S1
*1232 ANTENNA_c144_Y
*1233 ANTENNA_c145_D
*1234 ANTENNA_c145_SCD
*1235 ANTENNA_c145_SCE
*1236 ANTENNA_c146_SCE
*1237 ANTENNA_c149_A
*1238 ANTENNA_c149_X
*1239 ANTENNA_c150_X
*1240 ANTENNA_c151_GATE
*1241 ANTENNA_c152_A
*1242 ANTENNA_c152_X
*1243 ANTENNA_c153_SCE
*1244 ANTENNA_c154_X
*1245 ANTENNA_c155_A
*1246 ANTENNA_c155_B
*1247 ANTENNA_c155_Y
*1248 ANTENNA_c156_A
*1249 ANTENNA_c156_Y
*1250 ANTENNA_c157_A
*1251 ANTENNA_c158_A
*1252 ANTENNA_c158_Y
*1253 ANTENNA_c159_A
*1254 ANTENNA_c159_B
*1255 ANTENNA_c159_Y
*1256 ANTENNA_c162_B
*1257 ANTENNA_c162_Y
*1258 ANTENNA_c164_Q
*1259 ANTENNA_c164_SCE
*1260 ANTENNA_c165_A1
*1261 ANTENNA_c166_Q
*1262 ANTENNA_c167_A2
*1263 ANTENNA_c167_X
*1264 ANTENNA_c168_A
*1265 ANTENNA_c168_B
*1266 ANTENNA_c169_Y
*1267 ANTENNA_c170_D
*1268 ANTENNA_c170_RESET_B
*1269 ANTENNA_c171_Q
*1270 ANTENNA_c171_SCE
*1271 ANTENNA_c172_B
*1272 ANTENNA_c173_B1_N
*1273 ANTENNA_c174_D
*1274 ANTENNA_c174_RESET_B
*1275 ANTENNA_c175_A
*1276 ANTENNA_c175_B
*1277 ANTENNA_c176_D
*1278 ANTENNA_c177_D
*1279 ANTENNA_c177_Q
*1280 ANTENNA_c177_RESET_B
*1281 ANTENNA_c178_RESET_B
*1282 ANTENNA_c179_A1
*1283 ANTENNA_c179_X
*1284 ANTENNA_c180_D
*1285 ANTENNA_c180_Q
*1286 ANTENNA_c180_SET_B
*1287 ANTENNA_c181_A
*1288 ANTENNA_c181_B
*1289 ANTENNA_c183_Y
*1290 ANTENNA_c184_SET_B
*1291 ANTENNA_c185_A
*1292 ANTENNA_c185_B
*1293 ANTENNA_c186_SET_B
*1294 ANTENNA_c187_A1
*1295 ANTENNA_c187_B1_N
*1296 ANTENNA_c189_B
*1297 ANTENNA_c190_A
*1298 ANTENNA_c190_B
*1299 ANTENNA_c191_A
*1300 ANTENNA_c192_RESET_B
*1301 ANTENNA_c194_B
*1302 ANTENNA_c195_RESET_B
*1303 ANTENNA_c196_Y
*1304 ANTENNA_c198_RESET_B
*1305 ANTENNA_c199_A
*1306 ANTENNA_c199_B
*1307 ANTENNA_c199_Y
*1308 ANTENNA_c200_A
*1309 ANTENNA_c201_B
*1310 ANTENNA_c201_Y
*1311 ANTENNA_c203_Y
*1312 ANTENNA_c204_A
*1313 ANTENNA_c205_B
*1314 ANTENNA_c206_B
*1315 ANTENNA_c206_Y
*1316 ANTENNA_c207_RESET_B
*1317 ANTENNA_c209_Y
*1318 ANTENNA_c210_B
*1319 ANTENNA_c211_D
*1320 ANTENNA_c211_RESET_B
*1321 ANTENNA_c212_RESET_B
*1322 ANTENNA_c213_A
*1323 ANTENNA_c213_B
*1324 ANTENNA_c214_RESET_B
*1325 ANTENNA_c215_RESET_B
*1326 ANTENNA_c215_SCD
*1327 ANTENNA_c215_SCE
*1328 ANTENNA_c216_B
*1329 ANTENNA_c217_RESET_B
*1330 ANTENNA_c218_D
*1331 ANTENNA_c219_RESET_B
*1332 ANTENNA_c220_Y
*1333 ANTENNA_c222_D
*1334 ANTENNA_c222_SCD
*1335 ANTENNA_c223_Y
*1336 ANTENNA_c224_D
*1337 ANTENNA_c224_DE
*1338 ANTENNA_c225_B
*1339 ANTENNA_c225_Y
*1340 ANTENNA_c226_B
*1341 ANTENNA_c228_A
*1342 ANTENNA_c230_B1
*1343 ANTENNA_c230_X
*1344 ANTENNA_c231_B
*1345 ANTENNA_c233_SET_B
*1346 ANTENNA_c235_SET_B
*1347 ANTENNA_c237_A
*1348 ANTENNA_c237_B
*1349 ANTENNA_c238_SET_B
*1350 ANTENNA_c239_D
*1351 ANTENNA_c241_A
*1352 ANTENNA_c241_B
*1353 ANTENNA_c242_A2
*1354 ANTENNA_c243_B
*1355 ANTENNA_c246_SCE
*1356 ANTENNA_c247_SCE
*1357 ANTENNA_c249_D
*1358 ANTENNA_c252_A
*1359 ANTENNA_c252_X
*1360 ANTENNA_c253_D
*1361 ANTENNA_c253_RESET_B
*1362 ANTENNA_c254_A
*1363 ANTENNA_c255_A
*1364 ANTENNA_c255_Y
*1365 ANTENNA_c256_B
*1366 ANTENNA_c257_B
*1367 ANTENNA_c257_Y
*1368 ANTENNA_c258_A
*1369 ANTENNA_c259_D
*1370 ANTENNA_c259_RESET_B
*1371 ANTENNA_c25_A
*1372 ANTENNA_c25_X
*1373 ANTENNA_c260_D
*1374 ANTENNA_c260_Q
*1375 ANTENNA_c260_RESET_B
*1376 ANTENNA_c261_A
*1377 ANTENNA_c262_Q
*1378 ANTENNA_c262_RESET_B
*1379 ANTENNA_c265_D
*1380 ANTENNA_c265_SCE
*1381 ANTENNA_c266_A
*1382 ANTENNA_c268_A2
*1383 ANTENNA_c268_B1_N
*1384 ANTENNA_c269_Y
*1385 ANTENNA_c26_A
*1386 ANTENNA_c26_X
*1387 ANTENNA_c270_D
*1388 ANTENNA_c270_Q
*1389 ANTENNA_c271_Q
*1390 ANTENNA_c271_Q_N
*1391 ANTENNA_c271_SET_B
*1392 ANTENNA_c273_D
*1393 ANTENNA_c273_Q
*1394 ANTENNA_c273_SET_B
*1395 ANTENNA_c275_D
*1396 ANTENNA_c275_Q
*1397 ANTENNA_c275_SET_B
*1398 ANTENNA_c276_B1_N
*1399 ANTENNA_c277_A
*1400 ANTENNA_c277_B
*1401 ANTENNA_c278_D
*1402 ANTENNA_c278_Q
*1403 ANTENNA_c279_D
*1404 ANTENNA_c279_SET_B
*1405 ANTENNA_c27_A
*1406 ANTENNA_c27_X
*1407 ANTENNA_c280_A
*1408 ANTENNA_c281_A
*1409 ANTENNA_c282_A
*1410 ANTENNA_c282_B
*1411 ANTENNA_c283_RESET_B
*1412 ANTENNA_c284_Y
*1413 ANTENNA_c285_RESET_B
*1414 ANTENNA_c286_RESET_B
*1415 ANTENNA_c288_D
*1416 ANTENNA_c288_RESET_B
*1417 ANTENNA_c289_B
*1418 ANTENNA_c28_A
*1419 ANTENNA_c28_X
*1420 ANTENNA_c291_Y
*1421 ANTENNA_c292_RESET_B
*1422 ANTENNA_c293_SET_B
*1423 ANTENNA_c295_B
*1424 ANTENNA_c296_B
*1425 ANTENNA_c296_Y
*1426 ANTENNA_c298_B
*1427 ANTENNA_c29_A
*1428 ANTENNA_c29_B
*1429 ANTENNA_c29_Y
*1430 ANTENNA_c300_SCE
*1431 ANTENNA_c301_Q
*1432 ANTENNA_c301_RESET_B
*1433 ANTENNA_c303_A
*1434 ANTENNA_c304_A
*1435 ANTENNA_c304_B
*1436 ANTENNA_c305_A3
*1437 ANTENNA_c306_S1
*1438 ANTENNA_c308_Q
*1439 ANTENNA_c308_RESET_B
*1440 ANTENNA_c309_A2
*1441 ANTENNA_c30_A
*1442 ANTENNA_c30_B
*1443 ANTENNA_c310_B
*1444 ANTENNA_c312_DE
*1445 ANTENNA_c312_Q
*1446 ANTENNA_c313_Q
*1447 ANTENNA_c313_SCD
*1448 ANTENNA_c313_SCE
*1449 ANTENNA_c314_Y
*1450 ANTENNA_c315_B
*1451 ANTENNA_c316_A
*1452 ANTENNA_c316_Y
*1453 ANTENNA_c317_D
*1454 ANTENNA_c317_Q
*1455 ANTENNA_c318_A0
*1456 ANTENNA_c318_A1
*1457 ANTENNA_c318_A2
*1458 ANTENNA_c318_A3
*1459 ANTENNA_c318_S0
*1460 ANTENNA_c318_S1
*1461 ANTENNA_c319_A1
*1462 ANTENNA_c319_A2
*1463 ANTENNA_c319_X
*1464 ANTENNA_c31_A
*1465 ANTENNA_c320_D
*1466 ANTENNA_c320_SCE
*1467 ANTENNA_c322_A2
*1468 ANTENNA_c322_S1
*1469 ANTENNA_c323_SCE
*1470 ANTENNA_c324_A1
*1471 ANTENNA_c324_A2
*1472 ANTENNA_c324_B1_N
*1473 ANTENNA_c326_Y
*1474 ANTENNA_c327_SCE
*1475 ANTENNA_c328_RESET_B
*1476 ANTENNA_c328_SCD
*1477 ANTENNA_c328_SCE
*1478 ANTENNA_c32_A
*1479 ANTENNA_c32_Y
*1480 ANTENNA_c331_B
*1481 ANTENNA_c332_A
*1482 ANTENNA_c334_B
*1483 ANTENNA_c335_Q_N
*1484 ANTENNA_c336_A
*1485 ANTENNA_c337_A1
*1486 ANTENNA_c337_A2
*1487 ANTENNA_c337_S0
*1488 ANTENNA_c337_S1
*1489 ANTENNA_c338_RESET_B
*1490 ANTENNA_c338_SCD
*1491 ANTENNA_c338_SCE
*1492 ANTENNA_c339_A1
*1493 ANTENNA_c339_A2
*1494 ANTENNA_c339_B1_N
*1495 ANTENNA_c339_X
*1496 ANTENNA_c33_A
*1497 ANTENNA_c33_X
*1498 ANTENNA_c341_SCD
*1499 ANTENNA_c342_B1_N
*1500 ANTENNA_c342_X
*1501 ANTENNA_c343_B
*1502 ANTENNA_c344_B1_N
*1503 ANTENNA_c345_RESET_B
*1504 ANTENNA_c345_SET_B
*1505 ANTENNA_c348_B
*1506 ANTENNA_c34_X
*1507 ANTENNA_c351_Q
*1508 ANTENNA_c352_B1_N
*1509 ANTENNA_c352_X
*1510 ANTENNA_c353_A2
*1511 ANTENNA_c354_A1
*1512 ANTENNA_c354_A2
*1513 ANTENNA_c354_B1_N
*1514 ANTENNA_c355_RESET_B
*1515 ANTENNA_c355_SET_B
*1516 ANTENNA_c357_A
*1517 ANTENNA_c357_B
*1518 ANTENNA_c358_B1_N
*1519 ANTENNA_c359_D
*1520 ANTENNA_c35_B
*1521 ANTENNA_c361_A1
*1522 ANTENNA_c363_A
*1523 ANTENNA_c364_SCE
*1524 ANTENNA_c365_A
*1525 ANTENNA_c366_B1
*1526 ANTENNA_c367_A
*1527 ANTENNA_c368_SCE
*1528 ANTENNA_c369_B
*1529 ANTENNA_c36_A
*1530 ANTENNA_c36_B
*1531 ANTENNA_c373_SCE
*1532 ANTENNA_c378_A
*1533 ANTENNA_c378_B
*1534 ANTENNA_c37_A
*1535 ANTENNA_c37_B
*1536 ANTENNA_c37_Y
*1537 ANTENNA_c380_A
*1538 ANTENNA_c381_B
*1539 ANTENNA_c383_A
*1540 ANTENNA_c384_A
*1541 ANTENNA_c384_X
*1542 ANTENNA_c385_A
*1543 ANTENNA_c386_X
*1544 ANTENNA_c387_A
*1545 ANTENNA_c387_X
*1546 ANTENNA_c388_SCD
*1547 ANTENNA_c388_SCE
*1548 ANTENNA_c38_A
*1549 ANTENNA_c38_B
*1550 ANTENNA_c38_Y
*1551 ANTENNA_c390_B
*1552 ANTENNA_c392_X
*1553 ANTENNA_c395_D
*1554 ANTENNA_c395_Q
*1555 ANTENNA_c395_RESET_B
*1556 ANTENNA_c397_SCE
*1557 ANTENNA_c398_A1
*1558 ANTENNA_c398_X
*1559 ANTENNA_c399_X
*1560 ANTENNA_c39_D
*1561 ANTENNA_c39_RESET_B
*1562 ANTENNA_c401_SET_B
*1563 ANTENNA_c403_A
*1564 ANTENNA_c403_B
*1565 ANTENNA_c404_SET_B
*1566 ANTENNA_c405_B1_N
*1567 ANTENNA_c405_X
*1568 ANTENNA_c406_A
*1569 ANTENNA_c407_D
*1570 ANTENNA_c408_B
*1571 ANTENNA_c408_Y
*1572 ANTENNA_c409_B
*1573 ANTENNA_c409_Y
*1574 ANTENNA_c40_B
*1575 ANTENNA_c40_Y
*1576 ANTENNA_c410_D
*1577 ANTENNA_c411_B
*1578 ANTENNA_c411_Y
*1579 ANTENNA_c412_Q
*1580 ANTENNA_c412_SET_B
*1581 ANTENNA_c413_Q
*1582 ANTENNA_c413_SET_B
*1583 ANTENNA_c415_D
*1584 ANTENNA_c416_A
*1585 ANTENNA_c417_D
*1586 ANTENNA_c417_RESET_B
*1587 ANTENNA_c418_D
*1588 ANTENNA_c419_A2
*1589 ANTENNA_c41_D
*1590 ANTENNA_c420_A1
*1591 ANTENNA_c421_A0
*1592 ANTENNA_c421_A1
*1593 ANTENNA_c421_A2
*1594 ANTENNA_c421_S1
*1595 ANTENNA_c422_SCE
*1596 ANTENNA_c423_A
*1597 ANTENNA_c425_A
*1598 ANTENNA_c425_B
*1599 ANTENNA_c427_B
*1600 ANTENNA_c427_Y
*1601 ANTENNA_c428_B
*1602 ANTENNA_c429_B
*1603 ANTENNA_c42_Q
*1604 ANTENNA_c430_Y
*1605 ANTENNA_c432_SCD
*1606 ANTENNA_c433_SCE
*1607 ANTENNA_c434_B
*1608 ANTENNA_c434_Y
*1609 ANTENNA_c436_A1
*1610 ANTENNA_c436_B1_N
*1611 ANTENNA_c438_A2
*1612 ANTENNA_c438_B1_N
*1613 ANTENNA_c438_X
*1614 ANTENNA_c43_A
*1615 ANTENNA_c440_SCD
*1616 ANTENNA_c441_A1
*1617 ANTENNA_c441_A2
*1618 ANTENNA_c442_A1
*1619 ANTENNA_c442_A2
*1620 ANTENNA_c444_A1
*1621 ANTENNA_c444_A3
*1622 ANTENNA_c444_B1
*1623 ANTENNA_c444_X
*1624 ANTENNA_c446_SCD
*1625 ANTENNA_c446_SCE
*1626 ANTENNA_c447_SET_B
*1627 ANTENNA_c448_D
*1628 ANTENNA_c448_RESET_B
*1629 ANTENNA_c448_SET_B
*1630 ANTENNA_c44_A
*1631 ANTENNA_c44_B
*1632 ANTENNA_c44_Y
*1633 ANTENNA_c450_D
*1634 ANTENNA_c451_A1
*1635 ANTENNA_c451_A2
*1636 ANTENNA_c452_D
*1637 ANTENNA_c452_SCD
*1638 ANTENNA_c452_SCE
*1639 ANTENNA_c454_A
*1640 ANTENNA_c454_B
*1641 ANTENNA_c454_Y
*1642 ANTENNA_c455_B
*1643 ANTENNA_c456_D
*1644 ANTENNA_c457_SCD
*1645 ANTENNA_c458_A2
*1646 ANTENNA_c45_X
*1647 ANTENNA_c462_B1_N
*1648 ANTENNA_c463_A1
*1649 ANTENNA_c463_A2
*1650 ANTENNA_c463_B1_N
*1651 ANTENNA_c464_A1
*1652 ANTENNA_c464_B1_N
*1653 ANTENNA_c465_D
*1654 ANTENNA_c465_RESET_B
*1655 ANTENNA_c466_B1_N
*1656 ANTENNA_c466_X
*1657 ANTENNA_c467_SCD
*1658 ANTENNA_c468_D
*1659 ANTENNA_c468_SCD
*1660 ANTENNA_c469_B1_N
*1661 ANTENNA_c46_A
*1662 ANTENNA_c46_X
*1663 ANTENNA_c470_A2
*1664 ANTENNA_c471_B1_N
*1665 ANTENNA_c472_D
*1666 ANTENNA_c472_RESET_B
*1667 ANTENNA_c473_D
*1668 ANTENNA_c473_SET_B
*1669 ANTENNA_c474_B1_N
*1670 ANTENNA_c475_RESET_B
*1671 ANTENNA_c476_SET_B
*1672 ANTENNA_c477_A0
*1673 ANTENNA_c477_A2
*1674 ANTENNA_c477_A3
*1675 ANTENNA_c477_S0
*1676 ANTENNA_c477_S1
*1677 ANTENNA_c478_D
*1678 ANTENNA_c479_D
*1679 ANTENNA_c479_SCE
*1680 ANTENNA_c47_A
*1681 ANTENNA_c47_B
*1682 ANTENNA_c480_Y
*1683 ANTENNA_c481_B1_N
*1684 ANTENNA_c482_SCE
*1685 ANTENNA_c487_RESET_B
*1686 ANTENNA_c487_SCE
*1687 ANTENNA_c488_SCD
*1688 ANTENNA_c489_RESET_B
*1689 ANTENNA_c489_SCE
*1690 ANTENNA_c48_Q
*1691 ANTENNA_c491_A1
*1692 ANTENNA_c492_A3
*1693 ANTENNA_c492_A4
*1694 ANTENNA_c492_B1
*1695 ANTENNA_c493_SCD
*1696 ANTENNA_c493_SCE
*1697 ANTENNA_c494_D
*1698 ANTENNA_c495_A1
*1699 ANTENNA_c495_A3
*1700 ANTENNA_c495_A4
*1701 ANTENNA_c496_SCD
*1702 ANTENNA_c497_A1
*1703 ANTENNA_c498_A1
*1704 ANTENNA_c498_B1
*1705 ANTENNA_c499_D
*1706 ANTENNA_c499_SET_B
*1707 ANTENNA_c49_A
*1708 ANTENNA_c49_X
*1709 ANTENNA_c500_D
*1710 ANTENNA_c500_SET_B
*1711 ANTENNA_c501_SET_B
*1712 ANTENNA_c503_A2
*1713 ANTENNA_c503_B1
*1714 ANTENNA_c504_D
*1715 ANTENNA_c504_DE
*1716 ANTENNA_c505_GATE
*1717 ANTENNA_c506_A
*1718 ANTENNA_c506_Y
*1719 ANTENNA_c509_D
*1720 ANTENNA_c509_Q_N
*1721 ANTENNA_c50_A
*1722 ANTENNA_c50_X
*1723 ANTENNA_c510_A
*1724 ANTENNA_c510_B
*1725 ANTENNA_c510_Y
*1726 ANTENNA_c511_D
*1727 ANTENNA_c511_DE
*1728 ANTENNA_c512_A
*1729 ANTENNA_c513_GATE
*1730 ANTENNA_c515_X
*1731 ANTENNA_c516_X
*1732 ANTENNA_c517_A
*1733 ANTENNA_c519_B
*1734 ANTENNA_c51_A
*1735 ANTENNA_c520_GATE
*1736 ANTENNA_c521_B
*1737 ANTENNA_c523_A1
*1738 ANTENNA_c523_X
*1739 ANTENNA_c526_D
*1740 ANTENNA_c527_A2
*1741 ANTENNA_c528_B
*1742 ANTENNA_c529_B
*1743 ANTENNA_c530_A
*1744 ANTENNA_c532_B
*1745 ANTENNA_c533_B
*1746 ANTENNA_c534_D
*1747 ANTENNA_c534_SCD
*1748 ANTENNA_c534_SCE
*1749 ANTENNA_c538_A
*1750 ANTENNA_c539_A
*1751 ANTENNA_c53_A
*1752 ANTENNA_c53_X
*1753 ANTENNA_c540_Y
*1754 ANTENNA_c541_B
*1755 ANTENNA_c543_A2
*1756 ANTENNA_c543_B1_N