*SPEF "ieee 1481-1999"
*DESIGN "netlist_1"
*DATE "19:35:47 Thursday August 08, 2024"
*VENDOR "The OpenROAD Project"
*PROGRAM "OpenROAD"
*VERSION "d423155d69de7f683a23f6916ead418a615ad4ad"
*DESIGN_FLOW "NAME_SCOPE LOCAL" "PIN_CAP NONE"
*DIVIDER /
*DELIMITER :
*BUS_DELIMITER []
*T_UNIT 1 NS
*C_UNIT 1 PF
*R_UNIT 1 OHM
*L_UNIT 1 HENRY

*NAME_MAP
*3 clk
*4 in0
*5 in1
*6 in10
*7 in11
*8 in12
*9 in13
*10 in14
*11 in15
*12 in16
*13 in17
*14 in18
*15 in19
*16 in2
*17 in20
*18 in21
*19 in22
*20 in23
*21 in24
*22 in25
*23 in26
*24 in27
*25 in28
*26 in29
*27 in3
*28 in30
*29 in31
*30 in32
*31 in33
*32 in34
*33 in35
*34 in36
*35 in37
*36 in38
*37 in39
*38 in4
*39 in40
*40 in41
*41 in42
*42 in43
*43 in44
*44 in45
*45 in46
*46 in47
*47 in48
*48 in49
*49 in5
*50 in50
*51 in51
*52 in52
*53 in53
*54 in54
*55 in55
*56 in56
*57 in57
*58 in58
*59 in59
*60 in6
*61 in60
*62 in61
*63 in7
*64 in8
*65 in9
*66 out0
*67 out1
*68 out10
*69 out11
*70 out12
*71 out13
*72 out14
*73 out15
*74 out16
*75 out17
*76 out18
*77 out19
*78 out2
*79 out20
*80 out21
*81 out22
*82 out23
*83 out24
*84 out25
*85 out26
*86 out27
*87 out28
*88 out29
*89 out3
*90 out30
*91 out31
*92 out32
*93 out33
*94 out34
*95 out35
*96 out36
*97 out37
*98 out38
*99 out39
*100 out4
*101 out40
*102 out41
*103 out42
*104 out43
*105 out44
*106 out45
*107 out46
*108 out47
*109 out48
*110 out49
*111 out5
*112 out50
*113 out51
*114 out52
*115 out53
*116 out54
*117 out55
*118 out56
*119 out57
*120 out58
*121 out59
*122 out6
*123 out60
*124 out61
*125 out7
*126 out8
*127 out9
*128 rst
*129 clknet_0_clk
*130 clknet_0_net130
*131 clknet_0_net154
*132 clknet_0_net155
*133 clknet_0_net156
*134 clknet_0_net196
*135 clknet_0_net275
*136 clknet_0_net280
*137 clknet_0_net281
*138 clknet_0_net299
*139 clknet_0_net373
*140 clknet_0_net375
*141 clknet_0_net386
*142 clknet_0_net389
*143 clknet_0_net393
*144 clknet_0_net403
*145 clknet_0_net404
*146 clknet_0_net501
*147 clknet_0_net531
*148 clknet_0_net576
*149 clknet_0_net577
*150 clknet_0_net580
*151 clknet_0_net598
*152 clknet_0_net632
*153 clknet_0_net633
*154 clknet_0_net646
*155 clknet_0_net654
*156 clknet_0_net655
*157 clknet_0_net671
*158 clknet_0_net672
*159 clknet_0_net686
*160 clknet_0_net687
*161 clknet_0_net702
*162 clknet_0_net716
*163 clknet_0_net735
*164 clknet_0_net736
*165 clknet_0_net826
*166 clknet_0_net831
*167 clknet_0_net834
*168 clknet_0_net846
*169 clknet_0_net855
*170 clknet_0_net859
*171 clknet_0_net871
*172 clknet_0_net874
*173 clknet_1_0__leaf_net130
*174 clknet_1_0__leaf_net154
*175 clknet_1_0__leaf_net155
*176 clknet_1_0__leaf_net156
*177 clknet_1_0__leaf_net196
*178 clknet_1_0__leaf_net275
*179 clknet_1_0__leaf_net280
*180 clknet_1_0__leaf_net281
*181 clknet_1_0__leaf_net299
*182 clknet_1_0__leaf_net373
*183 clknet_1_0__leaf_net375
*184 clknet_1_0__leaf_net386
*185 clknet_1_0__leaf_net389
*186 clknet_1_0__leaf_net393
*187 clknet_1_0__leaf_net403
*188 clknet_1_0__leaf_net404
*189 clknet_1_0__leaf_net501
*190 clknet_1_0__leaf_net531
*191 clknet_1_0__leaf_net576
*192 clknet_1_0__leaf_net577
*193 clknet_1_0__leaf_net580
*194 clknet_1_0__leaf_net598
*195 clknet_1_0__leaf_net632
*196 clknet_1_0__leaf_net633
*197 clknet_1_0__leaf_net646
*198 clknet_1_0__leaf_net654
*199 clknet_1_0__leaf_net655
*200 clknet_1_0__leaf_net671
*201 clknet_1_0__leaf_net672
*202 clknet_1_0__leaf_net686
*203 clknet_1_0__leaf_net687
*204 clknet_1_0__leaf_net702
*205 clknet_1_0__leaf_net716
*206 clknet_1_0__leaf_net735
*207 clknet_1_0__leaf_net736
*208 clknet_1_0__leaf_net826
*209 clknet_1_0__leaf_net831
*210 clknet_1_0__leaf_net834
*211 clknet_1_0__leaf_net846
*212 clknet_1_0__leaf_net855
*213 clknet_1_0__leaf_net859
*214 clknet_1_0__leaf_net871
*215 clknet_1_0__leaf_net874
*216 clknet_1_1__leaf_net130
*217 clknet_1_1__leaf_net154
*218 clknet_1_1__leaf_net155
*219 clknet_1_1__leaf_net156
*220 clknet_1_1__leaf_net196
*221 clknet_1_1__leaf_net275
*222 clknet_1_1__leaf_net280
*223 clknet_1_1__leaf_net281
*224 clknet_1_1__leaf_net299
*225 clknet_1_1__leaf_net373
*226 clknet_1_1__leaf_net375
*227 clknet_1_1__leaf_net386
*228 clknet_1_1__leaf_net389
*229 clknet_1_1__leaf_net393
*230 clknet_1_1__leaf_net403
*231 clknet_1_1__leaf_net404
*232 clknet_1_1__leaf_net501
*233 clknet_1_1__leaf_net531
*234 clknet_1_1__leaf_net576
*235 clknet_1_1__leaf_net577
*236 clknet_1_1__leaf_net580
*237 clknet_1_1__leaf_net598
*238 clknet_1_1__leaf_net632
*239 clknet_1_1__leaf_net633
*240 clknet_1_1__leaf_net646
*241 clknet_1_1__leaf_net654
*242 clknet_1_1__leaf_net655
*243 clknet_1_1__leaf_net671
*244 clknet_1_1__leaf_net672
*245 clknet_1_1__leaf_net686
*246 clknet_1_1__leaf_net687
*247 clknet_1_1__leaf_net702
*248 clknet_1_1__leaf_net716
*249 clknet_1_1__leaf_net735
*250 clknet_1_1__leaf_net736
*251 clknet_1_1__leaf_net826
*252 clknet_1_1__leaf_net831
*253 clknet_1_1__leaf_net834
*254 clknet_1_1__leaf_net846
*255 clknet_1_1__leaf_net855
*256 clknet_1_1__leaf_net859
*257 clknet_1_1__leaf_net871
*258 clknet_1_1__leaf_net874
*259 clknet_2_0__leaf_clk
*260 clknet_2_1__leaf_clk
*261 clknet_2_2__leaf_clk
*262 clknet_2_3__leaf_clk
*263 clknet_leaf_0_clk
*264 clknet_leaf_10_clk
*265 clknet_leaf_11_clk
*266 clknet_leaf_12_clk
*267 clknet_leaf_13_clk
*268 clknet_leaf_14_clk
*269 clknet_leaf_15_clk
*270 clknet_leaf_16_clk
*271 clknet_leaf_17_clk
*272 clknet_leaf_18_clk
*273 clknet_leaf_19_clk
*274 clknet_leaf_1_clk
*275 clknet_leaf_20_clk
*276 clknet_leaf_21_clk
*277 clknet_leaf_22_clk
*278 clknet_leaf_23_clk
*279 clknet_leaf_24_clk
*280 clknet_leaf_25_clk
*281 clknet_leaf_26_clk
*282 clknet_leaf_27_clk
*283 clknet_leaf_28_clk
*284 clknet_leaf_29_clk
*285 clknet_leaf_2_clk
*286 clknet_leaf_30_clk
*287 clknet_leaf_31_clk
*288 clknet_leaf_32_clk
*289 clknet_leaf_33_clk
*290 clknet_leaf_34_clk
*291 clknet_leaf_35_clk
*292 clknet_leaf_36_clk
*293 clknet_leaf_37_clk
*294 clknet_leaf_38_clk
*295 clknet_leaf_3_clk
*296 clknet_leaf_40_clk
*297 clknet_leaf_41_clk
*298 clknet_leaf_42_clk
*299 clknet_leaf_43_clk
*300 clknet_leaf_4_clk
*301 clknet_leaf_5_clk
*302 clknet_leaf_6_clk
*303 clknet_leaf_7_clk
*304 clknet_leaf_8_clk
*305 clknet_leaf_9_clk
*306 net0
*307 net1
*308 net10
*309 net100
*310 net1000
*311 net1001
*312 net1002
*313 net1003
*314 net1004
*315 net1005
*316 net1006
*317 net1007
*318 net101
*319 net102
*320 net103
*321 net104
*322 net105
*323 net106
*324 net107
*325 net108
*326 net109
*327 net11
*328 net110
*329 net111
*330 net112
*331 net113
*332 net114
*333 net115
*334 net116
*335 net117
*336 net118
*337 net119
*338 net12
*339 net120
*340 net121
*341 net122
*342 net123
*343 net124
*344 net125
*345 net126
*346 net127
*347 net128
*348 net129
*349 net13
*350 net130
*351 net131
*352 net132
*353 net133
*354 net134
*355 net135
*356 net136
*357 net137
*358 net138
*359 net139
*360 net14
*361 net140
*362 net141
*363 net142
*364 net143
*365 net144
*366 net145
*367 net146
*368 net147
*369 net148
*370 net149
*371 net15
*372 net150
*373 net151
*374 net152
*375 net153
*376 net154
*377 net155
*378 net156
*379 net157
*380 net158
*381 net159
*382 net16
*383 net160
*384 net161
*385 net162
*386 net163
*387 net164
*388 net165
*389 net166
*390 net167
*391 net168
*392 net169
*393 net17
*394 net170
*395 net171
*396 net172
*397 net173
*398 net174
*399 net175
*400 net176
*401 net177
*402 net178
*403 net179
*404 net18
*405 net180
*406 net181
*407 net182
*408 net183
*409 net184
*410 net185
*411 net186
*412 net187
*413 net188
*414 net189
*415 net19
*416 net190
*417 net191
*418 net192
*419 net193
*420 net194
*421 net195
*422 net196
*423 net197
*424 net198
*425 net199
*426 net2
*427 net20
*428 net200
*429 net201
*430 net202
*431 net203
*432 net204
*433 net205
*434 net206
*435 net207
*436 net208
*437 net209
*438 net21
*439 net210
*440 net211
*441 net212
*442 net213
*443 net214
*444 net215
*445 net216
*446 net217
*447 net218
*448 net219
*449 net22
*450 net220
*451 net221
*452 net222
*453 net223
*454 net224
*455 net225
*456 net226
*457 net227
*458 net228
*459 net229
*460 net23
*461 net230
*462 net231
*463 net232
*464 net233
*465 net234
*466 net235
*467 net236
*468 net237
*469 net238
*470 net239
*471 net24
*472 net240
*473 net241
*474 net242
*475 net243
*476 net244
*477 net245
*478 net246
*479 net247
*480 net248
*481 net249
*482 net25
*483 net250
*484 net251
*485 net252
*486 net253
*487 net254
*488 net255
*489 net256
*490 net257
*491 net258
*492 net259
*493 net26
*494 net260
*495 net261
*496 net262
*497 net263
*498 net264
*499 net265
*500 net266
*501 net267
*502 net268
*503 net269
*504 net27
*505 net270
*506 net271
*507 net272
*508 net273
*509 net274
*510 net275
*511 net276
*512 net277
*513 net278
*514 net279
*515 net28
*516 net280
*517 net281
*518 net282
*519 net283
*520 net284
*521 net285
*522 net286
*523 net287
*524 net288
*525 net289
*526 net29
*527 net290
*528 net291
*529 net292
*530 net293
*531 net294
*532 net295
*533 net296
*534 net297
*535 net298
*536 net299
*537 net3
*538 net30
*539 net300
*540 net301
*541 net302
*542 net303
*543 net304
*544 net305
*545 net306
*546 net307
*547 net308
*548 net309
*549 net31
*550 net310
*551 net311
*552 net312
*553 net313
*554 net314
*555 net315
*556 net316
*557 net317
*558 net318
*559 net319
*560 net32
*561 net320
*562 net321
*563 net322
*564 net323
*565 net324
*566 net325
*567 net326
*568 net327
*569 net328
*570 net329
*571 net33
*572 net330
*573 net331
*574 net332
*575 net333
*576 net334
*577 net335
*578 net336
*579 net337
*580 net338
*581 net339
*582 net34
*583 net340
*584 net341
*585 net342
*586 net343
*587 net344
*588 net345
*589 net346
*590 net347
*591 net348
*592 net349
*593 net35
*594 net350
*595 net351
*596 net352
*597 net353
*598 net354
*599 net355
*600 net356
*601 net357
*602 net358
*603 net359
*604 net36
*605 net360
*606 net361
*607 net362
*608 net363
*609 net364
*610 net365
*611 net366
*612 net367
*613 net368
*614 net369
*615 net37
*616 net370
*617 net371
*618 net372
*619 net373
*620 net374
*621 net375
*622 net376
*623 net377
*624 net378
*625 net379
*626 net38
*627 net380
*628 net381
*629 net382
*630 net383
*631 net384
*632 net385
*633 net386
*634 net387
*635 net388
*636 net389
*637 net39
*638 net390
*639 net391
*640 net392
*641 net393
*642 net394
*643 net395
*644 net396
*645 net397
*646 net398
*647 net399
*648 net4
*649 net40
*650 net400
*651 net401
*652 net402
*653 net403
*654 net404
*655 net405
*656 net406
*657 net407
*658 net408
*659 net409
*660 net41
*661 net410
*662 net411
*663 net412
*664 net413
*665 net414
*666 net415
*667 net416
*668 net417
*669 net418
*670 net419
*671 net42
*672 net420
*673 net421
*674 net422
*675 net423
*676 net424
*677 net425
*678 net426
*679 net427
*680 net428
*681 net429
*682 net43
*683 net430
*684 net431
*685 net432
*686 net433
*687 net434
*688 net435
*689 net436
*690 net437
*691 net438
*692 net439
*693 net44
*694 net440
*695 net441
*696 net442
*697 net443
*698 net444
*699 net445
*700 net446
*701 net447
*702 net448
*703 net449
*704 net45
*705 net450
*706 net451
*707 net452
*708 net453
*709 net454
*710 net455
*711 net456
*712 net457
*713 net458
*714 net459
*715 net46
*716 net460
*717 net461
*718 net462
*719 net463
*720 net464
*721 net465
*722 net466
*723 net467
*724 net468
*725 net469
*726 net47
*727 net470
*728 net471
*729 net472
*730 net473
*731 net474
*732 net475
*733 net476
*734 net477
*735 net478
*736 net479
*737 net48
*738 net480
*739 net481
*740 net482
*741 net483
*742 net484
*743 net485
*744 net486
*745 net487
*746 net488
*747 net489
*748 net49
*749 net490
*750 net491
*751 net492
*752 net493
*753 net494
*754 net495
*755 net496
*756 net497
*757 net498
*758 net499
*759 net5
*760 net50
*761 net500
*762 net501
*763 net502
*764 net503
*765 net504
*766 net505
*767 net506
*768 net507
*769 net508
*770 net509
*771 net51
*772 net510
*773 net511
*774 net512
*775 net513
*776 net514
*777 net515
*778 net516
*779 net517
*780 net518
*781 net519
*782 net52
*783 net520
*784 net521
*785 net522
*786 net523
*787 net524
*788 net525
*789 net526
*790 net527
*791 net528
*792 net529
*793 net53
*794 net530
*795 net531
*796 net532
*797 net533
*798 net534
*799 net535
*800 net536
*801 net537
*802 net538
*803 net539
*804 net54
*805 net540
*806 net541
*807 net542
*808 net543
*809 net544
*810 net545
*811 net546
*812 net547
*813 net548
*814 net549
*815 net55
*816 net550
*817 net551
*818 net552
*819 net553
*820 net554
*821 net555
*822 net556
*823 net557
*824 net558
*825 net559
*826 net56
*827 net560
*828 net561
*829 net562
*830 net563
*831 net564
*832 net565
*833 net566
*834 net567
*835 net568
*836 net569
*837 net57
*838 net570
*839 net571
*840 net572
*841 net573
*842 net574
*843 net575
*844 net576
*845 net577
*846 net578
*847 net579
*848 net58
*849 net580
*850 net581
*851 net582
*852 net583
*853 net584
*854 net585
*855 net586
*856 net587
*857 net588
*858 net589
*859 net59
*860 net590
*861 net591
*862 net592
*863 net593
*864 net594
*865 net595
*866 net596
*867 net597
*868 net598
*869 net599
*870 net6
*871 net60
*872 net600
*873 net601
*874 net602
*875 net603
*876 net604
*877 net605
*878 net606
*879 net607
*880 net608
*881 net609
*882 net61
*883 net610
*884 net611
*885 net612
*886 net613
*887 net614
*888 net615
*889 net616
*890 net617
*891 net618
*892 net619
*893 net62
*894 net620
*895 net621
*896 net622
*897 net623
*898 net624
*899 net625
*900 net626
*901 net627
*902 net628
*903 net629
*904 net63
*905 net630
*906 net631
*907 net632
*908 net633
*909 net634
*910 net635
*911 net636
*912 net637
*913 net638
*914 net639
*915 net64
*916 net640
*917 net641
*918 net642
*919 net643
*920 net644
*921 net645
*922 net646
*923 net647
*924 net648
*925 net649
*926 net65
*927 net650
*928 net651
*929 net652
*930 net653
*931 net654
*932 net655
*933 net656
*934 net657
*935 net658
*936 net659
*937 net66
*938 net660
*939 net661
*940 net662
*941 net663
*942 net664
*943 net665
*944 net666
*945 net667
*946 net668
*947 net669
*948 net67
*949 net670
*950 net671
*951 net672
*952 net673
*953 net674
*954 net675
*955 net676
*956 net677
*957 net678
*958 net679
*959 net68
*960 net680
*961 net681
*962 net682
*963 net683
*964 net684
*965 net685
*966 net686
*967 net687
*968 net688
*969 net689
*970 net69
*971 net690
*972 net691
*973 net692
*974 net693
*975 net694
*976 net695
*977 net696
*978 net697
*979 net698
*980 net699
*981 net7
*982 net70
*983 net700
*984 net701
*985 net702
*986 net703
*987 net704
*988 net705
*989 net706
*990 net707
*991 net708
*992 net709
*993 net71
*994 net710
*995 net711
*996 net712
*997 net713
*998 net714
*999 net715
*1000 net716
*1001 net717
*1002 net718
*1003 net719
*1004 net72
*1005 net720
*1006 net721
*1007 net722
*1008 net723
*1009 net724
*1010 net725
*1011 net726
*1012 net727
*1013 net728
*1014 net729
*1015 net73
*1016 net730
*1017 net731
*1018 net732
*1019 net733
*1020 net734
*1021 net735
*1022 net736
*1023 net737
*1024 net738
*1025 net739
*1026 net74
*1027 net740
*1028 net741
*1029 net742
*1030 net743
*1031 net744
*1032 net745
*1033 net746
*1034 net747
*1035 net748
*1036 net749
*1037 net75
*1038 net750
*1039 net751
*1040 net752
*1041 net753
*1042 net754
*1043 net755
*1044 net756
*1045 net757
*1046 net758
*1047 net759
*1048 net76
*1049 net760
*1050 net761
*1051 net762
*1052 net763
*1053 net764
*1054 net765
*1055 net766
*1056 net767
*1057 net768
*1058 net769
*1059 net77
*1060 net770
*1061 net771
*1062 net772
*1063 net773
*1064 net774
*1065 net775
*1066 net776
*1067 net777
*1068 net778
*1069 net779
*1070 net78
*1071 net780
*1072 net781
*1073 net782
*1074 net783
*1075 net784
*1076 net785
*1077 net786
*1078 net787
*1079 net788
*1080 net789
*1081 net79
*1082 net790
*1083 net791
*1084 net792
*1085 net793
*1086 net794
*1087 net795
*1088 net796
*1089 net797
*1090 net798
*1091 net799
*1092 net8
*1093 net80
*1094 net800
*1095 net801
*1096 net802
*1097 net803
*1098 net804
*1099 net805
*1100 net806
*1101 net807
*1102 net808
*1103 net809
*1104 net81
*1105 net810
*1106 net811
*1107 net812
*1108 net813
*1109 net814
*1110 net815
*1111 net816
*1112 net817
*1113 net818
*1114 net819
*1115 net82
*1116 net820
*1117 net821
*1118 net822
*1119 net823
*1120 net824
*1121 net825
*1122 net826
*1123 net827
*1124 net828
*1125 net829
*1126 net83
*1127 net830
*1128 net831
*1129 net832
*1130 net833
*1131 net834
*1132 net835
*1133 net836
*1134 net837
*1135 net838
*1136 net839
*1137 net84
*1138 net840
*1139 net841
*1140 net842
*1141 net843
*1142 net844
*1143 net845
*1144 net846
*1145 net847
*1146 net848
*1147 net849
*1148 net85
*1149 net850
*1150 net851
*1151 net852
*1152 net853
*1153 net854
*1154 net855
*1155 net856
*1156 net857
*1157 net858
*1158 net859
*1159 net86
*1160 net860
*1161 net861
*1162 net862
*1163 net863
*1164 net864
*1165 net865
*1166 net866
*1167 net867
*1168 net868
*1169 net869
*1170 net87
*1171 net870
*1172 net871
*1173 net872
*1174 net873
*1175 net874
*1176 net875
*1177 net876
*1178 net877
*1179 net878
*1180 net879
*1181 net88
*1182 net880
*1183 net881
*1184 net882
*1185 net883
*1186 net884
*1187 net885
*1188 net886
*1189 net887
*1190 net888
*1191 net889
*1192 net89
*1193 net890
*1194 net891
*1195 net892
*1196 net893
*1197 net894
*1198 net895
*1199 net896
*1200 net897
*1201 net898
*1202 net899
*1203 net9
*1204 net90
*1205 net900
*1206 net901
*1207 net902
*1208 net903
*1209 net904
*1210 net905
*1211 net906
*1212 net907
*1213 net908
*1214 net909
*1215 net91
*1216 net910
*1217 net911
*1218 net912
*1219 net913
*1220 net914
*1221 net915
*1222 net916
*1223 net917
*1224 net918
*1225 net919
*1226 net92
*1227 net920
*1228 net921
*1229 net922
*1230 net923
*1231 net924
*1232 net925
*1233 net926
*1234 net927
*1235 net928
*1236 net929
*1237 net93
*1238 net930
*1239 net931
*1240 net932
*1241 net933
*1242 net934
*1243 net935
*1244 net936
*1245 net937
*1246 net938
*1247 net939
*1248 net94
*1249 net940
*1250 net941
*1251 net942
*1252 net943
*1253 net944
*1254 net945
*1255 net946
*1256 net947
*1257 net948
*1258 net949
*1259 net95
*1260 net950
*1261 net951
*1262 net952
*1263 net953
*1264 net954
*1265 net955
*1266 net956
*1267 net957
*1268 net958
*1269 net959
*1270 net96
*1271 net960
*1272 net961
*1273 net962
*1274 net963
*1275 net964
*1276 net965
*1277 net966
*1278 net967
*1279 net968
*1280 net969
*1281 net97
*1282 net970
*1283 net971
*1284 net972
*1285 net973
*1286 net974
*1287 net975
*1288 net976
*1289 net977
*1290 net978
*1291 net979
*1292 net98
*1293 net980
*1294 net981
*1295 net982
*1296 net983
*1297 net984
*1298 net985
*1299 net986
*1300 net987
*1301 net988
*1302 net989
*1303 net99
*1304 net990
*1305 net991
*1306 net992
*1307 net993
*1308 net994
*1309 net995
*1310 net996
*1311 net997
*1312 net998
*1313 net999
*1314 ANTENNA_1
*1315 ANTENNA_c101_A0
*1316 ANTENNA_c101_A2
*1317 ANTENNA_c105_A
*1318 ANTENNA_c106_B
*1319 ANTENNA_c110_RESET_B
*1320 ANTENNA_c111_B
*1321 ANTENNA_c115_RESET_B
*1322 ANTENNA_c123_A3
*1323 ANTENNA_c125_S0
*1324 ANTENNA_c126_B1_N
*1325 ANTENNA_c126_X
*1326 ANTENNA_c127_B
*1327 ANTENNA_c128_A0
*1328 ANTENNA_c128_S0
*1329 ANTENNA_c129_A
*1330 ANTENNA_c129_B
*1331 ANTENNA_c129_Y
*1332 ANTENNA_c131_A1
*1333 ANTENNA_c131_A3
*1334 ANTENNA_c131_B1
*1335 ANTENNA_c131_X
*1336 ANTENNA_c132_A
*1337 ANTENNA_c132_B
*1338 ANTENNA_c133_A
*1339 ANTENNA_c134_B
*1340 ANTENNA_c135_A2
*1341 ANTENNA_c136_A1
*1342 ANTENNA_c136_B1_N
*1343 ANTENNA_c137_B1_N
*1344 ANTENNA_c137_X
*1345 ANTENNA_c139_B1_N
*1346 ANTENNA_c139_X
*1347 ANTENNA_c140_A2
*1348 ANTENNA_c140_A3
*1349 ANTENNA_c140_B1
*1350 ANTENNA_c141_B1_N
*1351 ANTENNA_c142_A2
*1352 ANTENNA_c142_B1_N
*1353 ANTENNA_c144_A1
*1354 ANTENNA_c144_A2
*1355 ANTENNA_c144_X
*1356 ANTENNA_c145_S1
*1357 ANTENNA_c147_B1_N
*1358 ANTENNA_c148_B
*1359 ANTENNA_c149_A1
*1360 ANTENNA_c149_A2
*1361 ANTENNA_c149_B1_N
*1362 ANTENNA_c150_B
*1363 ANTENNA_c151_A2
*1364 ANTENNA_c152_A2
*1365 ANTENNA_c152_A3
*1366 ANTENNA_c152_S0
*1367 ANTENNA_c152_S1
*1368 ANTENNA_c152_X
*1369 ANTENNA_c155_B1
*1370 ANTENNA_c156_A2
*1371 ANTENNA_c156_A3
*1372 ANTENNA_c156_A4
*1373 ANTENNA_c156_B1
*1374 ANTENNA_c158_S0
*1375 ANTENNA_c158_X
*1376 ANTENNA_c159_A2
*1377 ANTENNA_c159_A4
*1378 ANTENNA_c159_B1
*1379 ANTENNA_c160_A3
*1380 ANTENNA_c160_B1
*1381 ANTENNA_c160_X
*1382 ANTENNA_c161_A2
*1383 ANTENNA_c161_A3
*1384 ANTENNA_c161_B1
*1385 ANTENNA_c162_X
*1386 ANTENNA_c163_S0
*1387 ANTENNA_c164_A4
*1388 ANTENNA_c164_B1
*1389 ANTENNA_c165_B1
*1390 ANTENNA_c165_X
*1391 ANTENNA_c166_A0
*1392 ANTENNA_c166_A1
*1393 ANTENNA_c167_D
*1394 ANTENNA_c167_Q
*1395 ANTENNA_c167_Q_N
*1396 ANTENNA_c167_SCE
*1397 ANTENNA_c167_SET_B
*1398 ANTENNA_c168_A1
*1399 ANTENNA_c168_A2
*1400 ANTENNA_c168_B1_N
*1401 ANTENNA_c169_B
*1402 ANTENNA_c170_A2
*1403 ANTENNA_c170_B1_N
*1404 ANTENNA_c170_X
*1405 ANTENNA_c171_B1_N
*1406 ANTENNA_c172_B
*1407 ANTENNA_c173_A2
*1408 ANTENNA_c173_B1_N
*1409 ANTENNA_c174_B1_N
*1410 ANTENNA_c175_A2
*1411 ANTENNA_c177_A2
*1412 ANTENNA_c177_B1_N
*1413 ANTENNA_c181_SCE
*1414 ANTENNA_c184_A1
*1415 ANTENNA_c185_D
*1416 ANTENNA_c186_A2
*1417 ANTENNA_c186_A3
*1418 ANTENNA_c186_S1
*1419 ANTENNA_c187_A0
*1420 ANTENNA_c187_A3
*1421 ANTENNA_c187_S1
*1422 ANTENNA_c188_A2
*1423 ANTENNA_c188_A3
*1424 ANTENNA_c188_S0
*1425 ANTENNA_c188_S1
*1426 ANTENNA_c189_SCD
*1427 ANTENNA_c189_SCE
*1428 ANTENNA_c190_A2
*1429 ANTENNA_c190_B1_N
*1430 ANTENNA_c191_A2
*1431 ANTENNA_c192_A2
*1432 ANTENNA_c193_B1_N
*1433 ANTENNA_c194_A2
*1434 ANTENNA_c194_B1_N
*1435 ANTENNA_c196_X
*1436 ANTENNA_c197_A2
*1437 ANTENNA_c197_B1_N
*1438 ANTENNA_c198_A2
*1439 ANTENNA_c198_B1_N
*1440 ANTENNA_c198_X
*1441 ANTENNA_c199_A1
*1442 ANTENNA_c199_A2
*1443 ANTENNA_c199_A3
*1444 ANTENNA_c199_S1
*1445 ANTENNA_c200_SET_B
*1446 ANTENNA_c201_RESET_B
*1447 ANTENNA_c201_SCD
*1448 ANTENNA_c202_A0
*1449 ANTENNA_c202_A1
*1450 ANTENNA_c202_A3
*1451 ANTENNA_c202_S0
*1452 ANTENNA_c203_SCD
*1453 ANTENNA_c204_B1
*1454 ANTENNA_c206_A2
*1455 ANTENNA_c206_A3
*1456 ANTENNA_c207_A1
*1457 ANTENNA_c207_S1
*1458 ANTENNA_c208_S0
*1459 ANTENNA_c209_A1
*1460 ANTENNA_c209_S0
*1461 ANTENNA_c210_A1
*1462 ANTENNA_c210_B1_N
*1463 ANTENNA_c213_B1_N
*1464 ANTENNA_c214_A1
*1465 ANTENNA_c214_A2
*1466 ANTENNA_c214_B1
*1467 ANTENNA_c215_A
*1468 ANTENNA_c215_B
*1469 ANTENNA_c217_SCD
*1470 ANTENNA_c218_A3
*1471 ANTENNA_c219_Q
*1472 ANTENNA_c220_A2
*1473 ANTENNA_c220_X
*1474 ANTENNA_c221_SCD
*1475 ANTENNA_c222_A2
*1476 ANTENNA_c222_A3
*1477 ANTENNA_c223_SCE
*1478 ANTENNA_c224_B
*1479 ANTENNA_c226_X
*1480 ANTENNA_c227_B1_N
*1481 ANTENNA_c228_A3
*1482 ANTENNA_c229_S0
*1483 ANTENNA_c230_A1
*1484 ANTENNA_c230_A2
*1485 ANTENNA_c230_A3
*1486 ANTENNA_c231_A1
*1487 ANTENNA_c232_A1
*1488 ANTENNA_c232_A2
*1489 ANTENNA_c232_B1
*1490 ANTENNA_c233_A3
*1491 ANTENNA_c234_A2
*1492 ANTENNA_c234_B1_N
*1493 ANTENNA_c235_A1
*1494 ANTENNA_c235_A4
*1495 ANTENNA_c236_B1_N
*1496 ANTENNA_c237_A3
*1497 ANTENNA_c238_SCE
*1498 ANTENNA_c239_A1
*1499 ANTENNA_c239_A2
*1500 ANTENNA_c242_SCE
*1501 ANTENNA_c242_SET_B
*1502 ANTENNA_c244_S1
*1503 ANTENNA_c245_D
*1504 ANTENNA_c247_A2
*1505 ANTENNA_c247_S0
*1506 ANTENNA_c251_S1
*1507 ANTENNA_c252_Y
*1508 ANTENNA_c253_Y
*1509 ANTENNA_c254_A
*1510 ANTENNA_c254_B
*1511 ANTENNA_c255_B
*1512 ANTENNA_c256_A
*1513 ANTENNA_c258_A1
*1514 ANTENNA_c259_B1_N
*1515 ANTENNA_c260_B1
*1516 ANTENNA_c261_Y
*1517 ANTENNA_c262_A2
*1518 ANTENNA_c263_A3
*1519 ANTENNA_c265_A3
*1520 ANTENNA_c266_B1_N
*1521 ANTENNA_c267_A1
*1522 ANTENNA_c268_S0
*1523 ANTENNA_c268_S1
*1524 ANTENNA_c268_X
*1525 ANTENNA_c269_Q
*1526 ANTENNA_c269_SCE
*1527 ANTENNA_c270_B1_N
*1528 ANTENNA_c271_A1
*1529 ANTENNA_c271_S0
*1530 ANTENNA_c271_S1
*1531 ANTENNA_c271_X
*1532 ANTENNA_c272_A2
*1533 ANTENNA_c272_A3
*1534 ANTENNA_c272_S1
*1535 ANTENNA_c273_B
*1536 ANTENNA_c274_A
*1537 ANTENNA_c274_B
*1538 ANTENNA_c275_B
*1539 ANTENNA_c276_A
*1540 ANTENNA_c276_B
*1541 ANTENNA_c278_Y
*1542 ANTENNA_c280_A2
*1543 ANTENNA_c281_Q
*1544 ANTENNA_c282_X
*1545 ANTENNA_c283_RESET_B
*1546 ANTENNA_c284_B
*1547 ANTENNA_c285_B1_N
*1548 ANTENNA_c285_X
*1549 ANTENNA_c286_X
*1550 ANTENNA_c287_Q
*1551 ANTENNA_c287_RESET_B
*1552 ANTENNA_c288_RESET_B
*1553 ANTENNA_c288_SCE
*1554 ANTENNA_c288_SET_B
*1555 ANTENNA_c289_A
*1556 ANTENNA_c290_A3
*1557 ANTENNA_c290_B1
*1558 ANTENNA_c290_X
*1559 ANTENNA_c291_D
*1560 ANTENNA_c291_Q
*1561 ANTENNA_c291_Q_N
*1562 ANTENNA_c291_RESET_B
*1563 ANTENNA_c291_SET_B
*1564 ANTENNA_c292_A1
*1565 ANTENNA_c292_A2
*1566 ANTENNA_c292_A3
*1567 ANTENNA_c292_S1
*1568 ANTENNA_c293_A1
*1569 ANTENNA_c293_S1
*1570 ANTENNA_c293_X
*1571 ANTENNA_c294_B
*1572 ANTENNA_c295_RESET_B
*1573 ANTENNA_c295_SET_B
*1574 ANTENNA_c296_B1_N
*1575 ANTENNA_c298_A2
*1576 ANTENNA_c298_B1_N
*1577 ANTENNA_c299_A3
*1578 ANTENNA_c299_A4
*1579 ANTENNA_c300_SCE
*1580 ANTENNA_c300_SET_B
*1581 ANTENNA_c301_SET_B
*1582 ANTENNA_c302_X
*1583 ANTENNA_c304_B1_N
*1584 ANTENNA_c305_SCD
*1585 ANTENNA_c305_SCE
*1586 ANTENNA_c306_SCD
*1587 ANTENNA_c306_SCE
*1588 ANTENNA_c307_SCE
*1589 ANTENNA_c308_A2
*1590 ANTENNA_c308_A3
*1591 ANTENNA_c308_A4
*1592 ANTENNA_c308_B1
*1593 ANTENNA_c310_RESET_B
*1594 ANTENNA_c310_SET_B
*1595 ANTENNA_c311_A1
*1596 ANTENNA_c311_A3
*1597 ANTENNA_c312_SCD
*1598 ANTENNA_c314_A3
*1599 ANTENNA_c314_X
*1600 ANTENNA_c315_A2
*1601 ANTENNA_c316_SCD
*1602 ANTENNA_c316_SCE
*1603 ANTENNA_c317_B1_N
*1604 ANTENNA_c318_A1
*1605 ANTENNA_c318_A2
*1606 ANTENNA_c318_S1
*1607 ANTENNA_c319_SCD
*1608 ANTENNA_c319_SCE
*1609 ANTENNA_c320_A2
*1610 ANTENNA_c321_SCD
*1611 ANTENNA_c321_SCE
*1612 ANTENNA_c322_A1
*1613 ANTENNA_c323_A2
*1614 ANTENNA_c323_B1_N
*1615 ANTENNA_c325_A4
*1616 ANTENNA_c325_B1
*1617 ANTENNA_c326_A3
*1618 ANTENNA_c327_A2
*1619 ANTENNA_c328_A0
*1620 ANTENNA_c328_A1
*1621 ANTENNA_c329_A2
*1622 ANTENNA_c329_X
*1623 ANTENNA_c330_A1
*1624 ANTENNA_c330_A3
*1625 ANTENNA_c331_A3
*1626 ANTENNA_c332_A2
*1627 ANTENNA_c335_A2
*1628 ANTENNA_c335_A3
*1629 ANTENNA_c335_S0
*1630 ANTENNA_c336_A1
*1631 ANTENNA_c336_B1_N
*1632 ANTENNA_c337_A2
*1633 ANTENNA_c337_X
*1634 ANTENNA_c339_A2
*1635 ANTENNA_c339_B1_N
*1636 ANTENNA_c341_A
*1637 ANTENNA_c341_B
*1638 ANTENNA_c342_SET_B
*1639 ANTENNA_c343_A1
*1640 ANTENNA_c343_A2
*1641 ANTENNA_c343_S0
*1642 ANTENNA_c344_B1_N
*1643 ANTENNA_c346_D
*1644 ANTENNA_c347_A0
*1645 ANTENNA_c347_A1
*1646 ANTENNA_c347_A2
*1647 ANTENNA_c347_A3
*1648 ANTENNA_c347_S0
*1649 ANTENNA_c347_X
*1650 ANTENNA_c348_S0
*1651 ANTENNA_c348_S1
*1652 ANTENNA_c349_A
*1653 ANTENNA_c349_B
*1654 ANTENNA_c350_X
*1655 ANTENNA_c351_A1
*1656 ANTENNA_c351_A2
*1657 ANTENNA_c352_B1
*1658 ANTENNA_c352_X
*1659 ANTENNA_c353_A1
*1660 ANTENNA_c353_A2
*1661 ANTENNA_c353_S0
*1662 ANTENNA_c354_RESET_B
*1663 ANTENNA_c354_SET_B
*1664 ANTENNA_c355_A2
*1665 ANTENNA_c355_S0
*1666 ANTENNA_c372_A0
*1667 ANTENNA_c372_A1
*1668 ANTENNA_c372_A3
*1669 ANTENNA_c372_S1
*1670 ANTENNA_c373_S0
*1671 ANTENNA_c375_A3
*1672 ANTENNA_c377_A0
*1673 ANTENNA_c377_A1
*1674 ANTENNA_c378_Y
*1675 ANTENNA_c379_A1
*1676 ANTENNA_c379_A4
*1677 ANTENNA_c379_X
*1678 ANTENNA_c380_B
*1679 ANTENNA_c381_B
*1680 ANTENNA_c381_Y
*1681 ANTENNA_c382_A
*1682 ANTENNA_c383_RESET_B
*1683 ANTENNA_c383_SET_B
*1684 ANTENNA_c384_Q
*1685 ANTENNA_c385_B
*1686 ANTENNA_c385_Y
*1687 ANTENNA_c386_B
*1688 ANTENNA_c386_Y
*1689 ANTENNA_c387_A
*1690 ANTENNA_c387_B
*1691 ANTENNA_c388_SCD
*1692 ANTENNA_c388_SCE
*1693 ANTENNA_c389_A
*1694 ANTENNA_c389_B
*1695 ANTENNA_c390_SCD
*1696 ANTENNA_c390_SCE
*1697 ANTENNA_c392_SCD
*1698 ANTENNA_c392_SCE
*1699 ANTENNA_c393_A2
*1700 ANTENNA_c393_A3
*1701 ANTENNA_c393_S0
*1702 ANTENNA_c393_S1
*1703 ANTENNA_c395_A0
*1704 ANTENNA_c395_A3
*1705 ANTENNA_c396_D
*1706 ANTENNA_c397_S0
*1707 ANTENNA_c399_A
*1708 ANTENNA_c399_B
*1709 ANTENNA_c400_D
*1710 ANTENNA_c400_SET_B
*1711 ANTENNA_c401_B
*1712 ANTENNA_c402_Q
*1713 ANTENNA_c402_RESET_B
*1714 ANTENNA_c402_SCD
*1715 ANTENNA_c403_SCE
*1716 ANTENNA_c404_A0
*1717 ANTENNA_c404_A3
*1718 ANTENNA_c404_S0
*1719 ANTENNA_c404_S1
*1720 ANTENNA_c405_A2
*1721 ANTENNA_c406_A1
*1722 ANTENNA_c407_SCE
*1723 ANTENNA_c410_B1_N
*1724 ANTENNA_c410_X
*1725 ANTENNA_c412_SET_B
*1726 ANTENNA_c413_A2
*1727 ANTENNA_c414_B1
*1728 ANTENNA_c415_A1
*1729 ANTENNA_c415_A2
*1730 ANTENNA_c415_S1
*1731 ANTENNA_c418_Y
*1732 ANTENNA_c419_A0
*1733 ANTENNA_c419_A2
*1734 ANTENNA_c419_A3
*1735 ANTENNA_c420_A
*1736 ANTENNA_c420_Y
*1737 ANTENNA_c421_A1
*1738 ANTENNA_c421_A2
*1739 ANTENNA_c421_B1_N
*1740 ANTENNA_c422_B1_N
*1741 ANTENNA_c422_X
*1742 ANTENNA_c423_SCD
*1743 ANTENNA_c423_SCE
*1744 ANTENNA_c424_A1
*1745 ANTENNA_c424_A2
*1746 ANTENNA_c424_S0
*1747 ANTENNA_c424_S1
*1748 ANTENNA_c425_D
*1749 ANTENNA_c425_RESET_B
*1750 ANTENNA_c426_D
*1751 ANTENNA_c426_Q
*1752 ANTENNA_c426_Q_N
*1753 ANTENNA_c426_SCD
*1754 ANTENNA_c426_SCE
*1755 ANTENNA_c426_SET_B
*1756 ANTENNA_c427_A1
*1757 ANTENNA_c427_A2
*1758 ANTENNA_c427_B1_N
*1759 ANTENNA_c428_D
*1760 ANTENNA_c428_Q
*1761 ANTENNA_c428_RESET_B
*1762 ANTENNA_c428_SET_B
*1763 ANTENNA_c429_D
*1764 ANTENNA_c429_SCE
*1765 ANTENNA_c430_A2
*1766 ANTENNA_c430_X
*1767 ANTENNA_c431_A3
*1768 ANTENNA_c431_B1
*1769 ANTENNA_c431_X
*1770 ANTENNA_c432_A2
*1771 ANTENNA_c432_A3
*1772 ANTENNA_c432_A4
*1773 ANTENNA_c432_B1
*1774 ANTENNA_c432_X
*1775 ANTENNA_c433_B1
*1776 ANTENNA_c433_X
*1777 ANTENNA_c434_A1
*1778 ANTENNA_c434_A2
*1779 ANTENNA_c434_A3
*1780 ANTENNA_c434_A4
*1781 ANTENNA_c435_A2
*1782 ANTENNA_c435_A3
*1783 ANTENNA_c435_S0
*1784 ANTENNA_c435_S1
*1785 ANTENNA_c436_A1
*1786 ANTENNA_c436_A2
*1787 ANTENNA_c437_A2
*1788 ANTENNA_c437_A3
*1789 ANTENNA_c438_D
*1790 ANTENNA_c438_Q
*1791 ANTENNA_c438_SCE
*1792 ANTENNA_c438_SET_B
*1793 ANTENNA_c439_A0
*1794 ANTENNA_c439_A1
*1795 ANTENNA_c439_A3
*1796 ANTENNA_c439_S0
*1797 ANTENNA_c440_A0
*1798 ANTENNA_c440_A1
*1799 ANTENNA_c440_A2
*1800 ANTENNA_c440_A3
*1801 ANTENNA_c441_D
*1802 ANTENNA_c441_RESET_B
*1803 ANTENNA_c441_SET_B
*1804 ANTENNA_c442_A1
*1805 ANTENNA_c442_X
*1806 ANTENNA_c443_A1
*1807 ANTENNA_c443_A2
*1808 ANTENNA_c443_B1_N
*1809 ANTENNA_c444_A1
*1810 ANTENNA_c444_B1_N
*1811 ANTENNA_c444_X
*1812 ANTENNA_c445_A0
*1813 ANTENNA_c445_A1
*1814 ANTENNA_c445_A2
*1815 ANTENNA_c445_A3
*1816 ANTENNA_c445_S0
*1817 ANTENNA_c446_D
*1818 ANTENNA_c447_A1
*1819 ANTENNA_c448_A1
*1820 ANTENNA_c448_A2
*1821 ANTENNA_c448_A3
*1822 ANTENNA_c449_SCE
*1823 ANTENNA_c450_A1
*1824 ANTENNA_c450_A3
*1825 ANTENNA_c450_B1
*1826 ANTENNA_c451_RESET_B
*1827 ANTENNA_c451_SET_B
*1828 ANTENNA_c452_A0
*1829 ANTENNA_c452_A1
*1830 ANTENNA_c452_A2
*1831 ANTENNA_c452_A3
*1832 ANTENNA_c452_S1
*1833 ANTENNA_c453_A1
*1834 ANTENNA_c453_A3