*SPEF "ieee 1481-1999"
*DESIGN "netlist_0"
*DATE "13:29:28 Saturday August 17, 2024"
*VENDOR "The OpenROAD Project"
*PROGRAM "OpenROAD"
*VERSION "d423155d69de7f683a23f6916ead418a615ad4ad"
*DESIGN_FLOW "NAME_SCOPE LOCAL" "PIN_CAP NONE"
*DIVIDER /
*DELIMITER :
*BUS_DELIMITER []
*T_UNIT 1 NS
*C_UNIT 1 PF
*R_UNIT 1 OHM
*L_UNIT 1 HENRY

*NAME_MAP
*3 clk
*4 in0
*5 in1
*6 in10
*7 in11
*8 in12
*9 in13
*10 in14
*11 in15
*12 in16
*13 in17
*14 in18
*15 in19
*16 in2
*17 in20
*18 in21
*19 in22
*20 in23
*21 in24
*22 in3
*23 in4
*24 in5
*25 in6
*26 in7
*27 in8
*28 in9
*29 out0
*30 out1
*31 out10
*32 out11
*33 out12
*34 out13
*35 out14
*36 out15
*37 out16
*38 out17
*39 out18
*40 out19
*41 out2
*42 out20
*43 out21
*44 out22
*45 out23
*46 out24
*47 out3
*48 out4
*49 out5
*50 out6
*51 out7
*52 out8
*53 out9
*54 rst
*55 clknet_0_clk
*56 clknet_0_net1007
*57 clknet_0_net1026
*58 clknet_0_net1027
*59 clknet_0_net1028
*60 clknet_0_net1055
*61 clknet_0_net1057
*62 clknet_0_net137
*63 clknet_0_net138
*64 clknet_0_net139
*65 clknet_0_net141
*66 clknet_0_net159
*67 clknet_0_net160
*68 clknet_0_net161
*69 clknet_0_net167
*70 clknet_0_net262
*71 clknet_0_net313
*72 clknet_0_net376
*73 clknet_0_net377
*74 clknet_0_net379
*75 clknet_0_net450
*76 clknet_0_net451
*77 clknet_0_net454
*78 clknet_0_net462
*79 clknet_0_net48
*80 clknet_0_net518
*81 clknet_0_net520
*82 clknet_0_net523
*83 clknet_0_net526
*84 clknet_0_net533
*85 clknet_0_net536
*86 clknet_0_net538
*87 clknet_0_net539
*88 clknet_0_net540
*89 clknet_0_net541
*90 clknet_0_net543
*91 clknet_0_net544
*92 clknet_0_net545
*93 clknet_0_net549
*94 clknet_0_net550
*95 clknet_0_net553
*96 clknet_0_net556
*97 clknet_0_net560
*98 clknet_0_net60
*99 clknet_0_net609
*100 clknet_0_net610
*101 clknet_0_net611
*102 clknet_0_net613
*103 clknet_0_net615
*104 clknet_0_net622
*105 clknet_0_net626
*106 clknet_0_net628
*107 clknet_0_net633
*108 clknet_0_net639
*109 clknet_0_net67
*110 clknet_0_net68
*111 clknet_0_net69
*112 clknet_0_net70
*113 clknet_0_net700
*114 clknet_0_net701
*115 clknet_0_net702
*116 clknet_0_net705
*117 clknet_0_net720
*118 clknet_0_net722
*119 clknet_0_net723
*120 clknet_0_net725
*121 clknet_0_net727
*122 clknet_0_net728
*123 clknet_0_net729
*124 clknet_0_net747
*125 clknet_0_net75
*126 clknet_0_net755
*127 clknet_0_net756
*128 clknet_0_net759
*129 clknet_0_net768
*130 clknet_0_net805
*131 clknet_0_net871
*132 clknet_0_net872
*133 clknet_0_net873
*134 clknet_0_net890
*135 clknet_0_net909
*136 clknet_0_net910
*137 clknet_0_net911
*138 clknet_0_net929
*139 clknet_0_net930
*140 clknet_0_net931
*141 clknet_0_net948
*142 clknet_0_net950
*143 clknet_0_net987
*144 clknet_1_0__leaf_net1007
*145 clknet_1_0__leaf_net1026
*146 clknet_1_0__leaf_net1027
*147 clknet_1_0__leaf_net1028
*148 clknet_1_0__leaf_net1055
*149 clknet_1_0__leaf_net1057
*150 clknet_1_0__leaf_net137
*151 clknet_1_0__leaf_net138
*152 clknet_1_0__leaf_net139
*153 clknet_1_0__leaf_net141
*154 clknet_1_0__leaf_net159
*155 clknet_1_0__leaf_net160
*156 clknet_1_0__leaf_net161
*157 clknet_1_0__leaf_net167
*158 clknet_1_0__leaf_net262
*159 clknet_1_0__leaf_net313
*160 clknet_1_0__leaf_net376
*161 clknet_1_0__leaf_net377
*162 clknet_1_0__leaf_net379
*163 clknet_1_0__leaf_net450
*164 clknet_1_0__leaf_net451
*165 clknet_1_0__leaf_net454
*166 clknet_1_0__leaf_net462
*167 clknet_1_0__leaf_net48
*168 clknet_1_0__leaf_net518
*169 clknet_1_0__leaf_net520
*170 clknet_1_0__leaf_net523
*171 clknet_1_0__leaf_net526
*172 clknet_1_0__leaf_net533
*173 clknet_1_0__leaf_net536
*174 clknet_1_0__leaf_net538
*175 clknet_1_0__leaf_net539
*176 clknet_1_0__leaf_net540
*177 clknet_1_0__leaf_net541
*178 clknet_1_0__leaf_net543
*179 clknet_1_0__leaf_net544
*180 clknet_1_0__leaf_net545
*181 clknet_1_0__leaf_net549
*182 clknet_1_0__leaf_net550
*183 clknet_1_0__leaf_net553
*184 clknet_1_0__leaf_net556
*185 clknet_1_0__leaf_net560
*186 clknet_1_0__leaf_net60
*187 clknet_1_0__leaf_net609
*188 clknet_1_0__leaf_net610
*189 clknet_1_0__leaf_net611
*190 clknet_1_0__leaf_net613
*191 clknet_1_0__leaf_net615
*192 clknet_1_0__leaf_net622
*193 clknet_1_0__leaf_net626
*194 clknet_1_0__leaf_net628
*195 clknet_1_0__leaf_net633
*196 clknet_1_0__leaf_net639
*197 clknet_1_0__leaf_net67
*198 clknet_1_0__leaf_net68
*199 clknet_1_0__leaf_net69
*200 clknet_1_0__leaf_net70
*201 clknet_1_0__leaf_net700
*202 clknet_1_0__leaf_net701
*203 clknet_1_0__leaf_net702
*204 clknet_1_0__leaf_net705
*205 clknet_1_0__leaf_net720
*206 clknet_1_0__leaf_net722
*207 clknet_1_0__leaf_net723
*208 clknet_1_0__leaf_net725
*209 clknet_1_0__leaf_net727
*210 clknet_1_0__leaf_net728
*211 clknet_1_0__leaf_net729
*212 clknet_1_0__leaf_net747
*213 clknet_1_0__leaf_net75
*214 clknet_1_0__leaf_net755
*215 clknet_1_0__leaf_net756
*216 clknet_1_0__leaf_net759
*217 clknet_1_0__leaf_net768
*218 clknet_1_0__leaf_net805
*219 clknet_1_0__leaf_net871
*220 clknet_1_0__leaf_net872
*221 clknet_1_0__leaf_net873
*222 clknet_1_0__leaf_net890
*223 clknet_1_0__leaf_net909
*224 clknet_1_0__leaf_net910
*225 clknet_1_0__leaf_net911
*226 clknet_1_0__leaf_net929
*227 clknet_1_0__leaf_net930
*228 clknet_1_0__leaf_net931
*229 clknet_1_0__leaf_net948
*230 clknet_1_0__leaf_net950
*231 clknet_1_0__leaf_net987
*232 clknet_1_1__leaf_net1007
*233 clknet_1_1__leaf_net1026
*234 clknet_1_1__leaf_net1027
*235 clknet_1_1__leaf_net1028
*236 clknet_1_1__leaf_net1055
*237 clknet_1_1__leaf_net1057
*238 clknet_1_1__leaf_net137
*239 clknet_1_1__leaf_net138
*240 clknet_1_1__leaf_net139
*241 clknet_1_1__leaf_net141
*242 clknet_1_1__leaf_net159
*243 clknet_1_1__leaf_net160
*244 clknet_1_1__leaf_net161
*245 clknet_1_1__leaf_net167
*246 clknet_1_1__leaf_net262
*247 clknet_1_1__leaf_net313
*248 clknet_1_1__leaf_net376
*249 clknet_1_1__leaf_net377
*250 clknet_1_1__leaf_net379
*251 clknet_1_1__leaf_net450
*252 clknet_1_1__leaf_net451
*253 clknet_1_1__leaf_net454
*254 clknet_1_1__leaf_net462
*255 clknet_1_1__leaf_net48
*256 clknet_1_1__leaf_net518
*257 clknet_1_1__leaf_net520
*258 clknet_1_1__leaf_net523
*259 clknet_1_1__leaf_net526
*260 clknet_1_1__leaf_net533
*261 clknet_1_1__leaf_net536
*262 clknet_1_1__leaf_net538
*263 clknet_1_1__leaf_net539
*264 clknet_1_1__leaf_net540
*265 clknet_1_1__leaf_net541
*266 clknet_1_1__leaf_net543
*267 clknet_1_1__leaf_net544
*268 clknet_1_1__leaf_net545
*269 clknet_1_1__leaf_net549
*270 clknet_1_1__leaf_net550
*271 clknet_1_1__leaf_net553
*272 clknet_1_1__leaf_net556
*273 clknet_1_1__leaf_net560
*274 clknet_1_1__leaf_net60
*275 clknet_1_1__leaf_net609
*276 clknet_1_1__leaf_net610
*277 clknet_1_1__leaf_net611
*278 clknet_1_1__leaf_net613
*279 clknet_1_1__leaf_net615
*280 clknet_1_1__leaf_net622
*281 clknet_1_1__leaf_net626
*282 clknet_1_1__leaf_net628
*283 clknet_1_1__leaf_net633
*284 clknet_1_1__leaf_net639
*285 clknet_1_1__leaf_net67
*286 clknet_1_1__leaf_net68
*287 clknet_1_1__leaf_net69
*288 clknet_1_1__leaf_net70
*289 clknet_1_1__leaf_net700
*290 clknet_1_1__leaf_net701
*291 clknet_1_1__leaf_net702
*292 clknet_1_1__leaf_net705
*293 clknet_1_1__leaf_net720
*294 clknet_1_1__leaf_net722
*295 clknet_1_1__leaf_net723
*296 clknet_1_1__leaf_net725
*297 clknet_1_1__leaf_net727
*298 clknet_1_1__leaf_net728
*299 clknet_1_1__leaf_net729
*300 clknet_1_1__leaf_net747
*301 clknet_1_1__leaf_net75
*302 clknet_1_1__leaf_net755
*303 clknet_1_1__leaf_net756
*304 clknet_1_1__leaf_net759
*305 clknet_1_1__leaf_net768
*306 clknet_1_1__leaf_net805
*307 clknet_1_1__leaf_net871
*308 clknet_1_1__leaf_net872
*309 clknet_1_1__leaf_net873
*310 clknet_1_1__leaf_net890
*311 clknet_1_1__leaf_net909
*312 clknet_1_1__leaf_net910
*313 clknet_1_1__leaf_net911
*314 clknet_1_1__leaf_net929
*315 clknet_1_1__leaf_net930
*316 clknet_1_1__leaf_net931
*317 clknet_1_1__leaf_net948
*318 clknet_1_1__leaf_net950
*319 clknet_1_1__leaf_net987
*320 clknet_2_0__leaf_clk
*321 clknet_2_1__leaf_clk
*322 clknet_2_2__leaf_clk
*323 clknet_2_3__leaf_clk
*324 clknet_leaf_0_clk
*325 clknet_leaf_10_clk
*326 clknet_leaf_11_clk
*327 clknet_leaf_12_clk
*328 clknet_leaf_13_clk
*329 clknet_leaf_14_clk
*330 clknet_leaf_15_clk
*331 clknet_leaf_16_clk
*332 clknet_leaf_17_clk
*333 clknet_leaf_18_clk
*334 clknet_leaf_19_clk
*335 clknet_leaf_1_clk
*336 clknet_leaf_20_clk
*337 clknet_leaf_21_clk
*338 clknet_leaf_22_clk
*339 clknet_leaf_23_clk
*340 clknet_leaf_24_clk
*341 clknet_leaf_25_clk
*342 clknet_leaf_26_clk
*343 clknet_leaf_27_clk
*344 clknet_leaf_28_clk
*345 clknet_leaf_29_clk
*346 clknet_leaf_2_clk
*347 clknet_leaf_30_clk
*348 clknet_leaf_31_clk
*349 clknet_leaf_32_clk
*350 clknet_leaf_33_clk
*351 clknet_leaf_34_clk
*352 clknet_leaf_35_clk
*353 clknet_leaf_36_clk
*354 clknet_leaf_37_clk
*355 clknet_leaf_38_clk
*356 clknet_leaf_39_clk
*357 clknet_leaf_3_clk
*358 clknet_leaf_40_clk
*359 clknet_leaf_41_clk
*360 clknet_leaf_42_clk
*361 clknet_leaf_43_clk
*362 clknet_leaf_44_clk
*363 clknet_leaf_45_clk
*364 clknet_leaf_46_clk
*365 clknet_leaf_47_clk
*366 clknet_leaf_48_clk
*367 clknet_leaf_4_clk
*368 clknet_leaf_5_clk
*369 clknet_leaf_6_clk
*370 clknet_leaf_7_clk
*371 clknet_leaf_8_clk
*372 clknet_leaf_9_clk
*373 net0
*374 net1
*375 net10
*376 net100
*377 net1000
*378 net1001
*379 net1002
*380 net1003
*381 net1004
*382 net1005
*383 net1006
*384 net1007
*385 net1008
*386 net1009
*387 net101
*388 net1010
*389 net1011
*390 net1012
*391 net1013
*392 net1014
*393 net1015
*394 net1016
*395 net1017
*396 net1018
*397 net1019
*398 net102
*399 net1020
*400 net1021
*401 net1022
*402 net1023
*403 net1024
*404 net1025
*405 net1026
*406 net1027
*407 net1028
*408 net1029
*409 net103
*410 net1030
*411 net1031
*412 net1032
*413 net1033
*414 net1034
*415 net1035
*416 net1036
*417 net1037
*418 net1038
*419 net1039
*420 net104
*421 net1040
*422 net1041
*423 net1042
*424 net1043
*425 net1044
*426 net1045
*427 net1046
*428 net1047
*429 net1048
*430 net1049
*431 net105
*432 net1050
*433 net1051
*434 net1052
*435 net1053
*436 net1054
*437 net1055
*438 net1056
*439 net1057
*440 net1058
*441 net1059
*442 net106
*443 net1060
*444 net1061
*445 net1062
*446 net1063
*447 net1064
*448 net1065
*449 net1066
*450 net1067
*451 net1068
*452 net1069
*453 net107
*454 net1070
*455 net1071
*456 net1072
*457 net1073
*458 net1074
*459 net1075
*460 net1076
*461 net1077
*462 net1078
*463 net1079
*464 net108
*465 net1080
*466 net1081
*467 net1082
*468 net1083
*469 net1084
*470 net1085
*471 net1086
*472 net1087
*473 net1088
*474 net1089
*475 net109
*476 net1090
*477 net1091
*478 net1092
*479 net1093
*480 net1094
*481 net1095
*482 net1096
*483 net1097
*484 net1098
*485 net1099
*486 net11
*487 net110
*488 net1100
*489 net1101
*490 net1102
*491 net1103
*492 net1104
*493 net1105
*494 net1106
*495 net1107
*496 net1108
*497 net1109
*498 net111
*499 net1110
*500 net1111
*501 net1112
*502 net1113
*503 net1114
*504 net1115
*505 net1116
*506 net1117
*507 net1118
*508 net1119
*509 net112
*510 net1120
*511 net1121
*512 net1122
*513 net1123
*514 net1124
*515 net1125
*516 net1126
*517 net1127
*518 net1128
*519 net1129
*520 net113
*521 net1130
*522 net1131
*523 net1132
*524 net1133
*525 net1134
*526 net1135
*527 net1136
*528 net1137
*529 net1138
*530 net1139
*531 net114
*532 net1140
*533 net1141
*534 net1142
*535 net1143
*536 net1144
*537 net1145
*538 net1146
*539 net1147
*540 net1148
*541 net1149
*542 net115
*543 net1150
*544 net1151
*545 net1152
*546 net1153
*547 net1154
*548 net1155
*549 net1156
*550 net1157
*551 net1158
*552 net1159
*553 net116
*554 net1160
*555 net1161
*556 net1162
*557 net1163
*558 net1164
*559 net1165
*560 net1166
*561 net1167
*562 net1168
*563 net1169
*564 net117
*565 net1170
*566 net1171
*567 net1172
*568 net1173
*569 net1174
*570 net1175
*571 net1176
*572 net1177
*573 net1178
*574 net1179
*575 net118
*576 net1180
*577 net1181
*578 net1182
*579 net1183
*580 net1184
*581 net1185
*582 net1186
*583 net1187
*584 net1188
*585 net1189
*586 net119
*587 net1190
*588 net1191
*589 net1192
*590 net1193
*591 net1194
*592 net1195
*593 net1196
*594 net1197
*595 net1198
*596 net12
*597 net120
*598 net121
*599 net122
*600 net123
*601 net124
*602 net125
*603 net126
*604 net127
*605 net128
*606 net129
*607 net13
*608 net130
*609 net131
*610 net132
*611 net133
*612 net134
*613 net135
*614 net136
*615 net137
*616 net138
*617 net139
*618 net14
*619 net140
*620 net141
*621 net142
*622 net143
*623 net144
*624 net145
*625 net146
*626 net147
*627 net148
*628 net149
*629 net15
*630 net150
*631 net151
*632 net152
*633 net153
*634 net154
*635 net155
*636 net156
*637 net157
*638 net158
*639 net159
*640 net16
*641 net160
*642 net161
*643 net162
*644 net163
*645 net164
*646 net165
*647 net166
*648 net167
*649 net168
*650 net169
*651 net17
*652 net170
*653 net171
*654 net172
*655 net173
*656 net174
*657 net175
*658 net176
*659 net177
*660 net178
*661 net179
*662 net18
*663 net180
*664 net181
*665 net182
*666 net183
*667 net184
*668 net185
*669 net186
*670 net187
*671 net188
*672 net189
*673 net19
*674 net190
*675 net191
*676 net192
*677 net193
*678 net194
*679 net195
*680 net196
*681 net197
*682 net198
*683 net199
*684 net2
*685 net20
*686 net200
*687 net201
*688 net202
*689 net203
*690 net204
*691 net205
*692 net206
*693 net207
*694 net208
*695 net209
*696 net21
*697 net210
*698 net211
*699 net212
*700 net213
*701 net214
*702 net215
*703 net216
*704 net217
*705 net218
*706 net219
*707 net22
*708 net220
*709 net221
*710 net222
*711 net223
*712 net224
*713 net225
*714 net226
*715 net227
*716 net228
*717 net229
*718 net23
*719 net230
*720 net231
*721 net232
*722 net233
*723 net234
*724 net235
*725 net236
*726 net237
*727 net238
*728 net239
*729 net24
*730 net240
*731 net241
*732 net242
*733 net243
*734 net244
*735 net245
*736 net246
*737 net247
*738 net248
*739 net249
*740 net25
*741 net250
*742 net251
*743 net252
*744 net253
*745 net254
*746 net255
*747 net256
*748 net257
*749 net258
*750 net259
*751 net26
*752 net260
*753 net261
*754 net262
*755 net263
*756 net264
*757 net265
*758 net266
*759 net267
*760 net268
*761 net269
*762 net27
*763 net270
*764 net271
*765 net272
*766 net273
*767 net274
*768 net275
*769 net276
*770 net277
*771 net278
*772 net279
*773 net28
*774 net280
*775 net281
*776 net282
*777 net283
*778 net284
*779 net285
*780 net286
*781 net287
*782 net288
*783 net289
*784 net29
*785 net290
*786 net291
*787 net292
*788 net293
*789 net294
*790 net295
*791 net296
*792 net297
*793 net298
*794 net299
*795 net3
*796 net30
*797 net300
*798 net301
*799 net302
*800 net303
*801 net304
*802 net305
*803 net306
*804 net307
*805 net308
*806 net309
*807 net31
*808 net310
*809 net311
*810 net312
*811 net313
*812 net314
*813 net315
*814 net316
*815 net317
*816 net318
*817 net319
*818 net32
*819 net320
*820 net321
*821 net322
*822 net323
*823 net324
*824 net325
*825 net326
*826 net327
*827 net328
*828 net329
*829 net33
*830 net330
*831 net331
*832 net332
*833 net333
*834 net334
*835 net335
*836 net336
*837 net337
*838 net338
*839 net339
*840 net34
*841 net340
*842 net341
*843 net342
*844 net343
*845 net344
*846 net345
*847 net346
*848 net347
*849 net348
*850 net349
*851 net35
*852 net350
*853 net351
*854 net352
*855 net353
*856 net354
*857 net355
*858 net356
*859 net357
*860 net358
*861 net359
*862 net36
*863 net360
*864 net361
*865 net362
*866 net363
*867 net364
*868 net365
*869 net366
*870 net367
*871 net368
*872 net369
*873 net37
*874 net370
*875 net371
*876 net372
*877 net373
*878 net374
*879 net375
*880 net376
*881 net377
*882 net378
*883 net379
*884 net38
*885 net380
*886 net381
*887 net382
*888 net383
*889 net384
*890 net385
*891 net386
*892 net387
*893 net388
*894 net389
*895 net39
*896 net390
*897 net391
*898 net392
*899 net393
*900 net394
*901 net395
*902 net396
*903 net397
*904 net398
*905 net399
*906 net4
*907 net40
*908 net400
*909 net401
*910 net402
*911 net403
*912 net404
*913 net405
*914 net406
*915 net407
*916 net408
*917 net409
*918 net41
*919 net410
*920 net411
*921 net412
*922 net413
*923 net414
*924 net415
*925 net416
*926 net417
*927 net418
*928 net419
*929 net42
*930 net420
*931 net421
*932 net422
*933 net423
*934 net424
*935 net425
*936 net426
*937 net427
*938 net428
*939 net429
*940 net43
*941 net430
*942 net431
*943 net432
*944 net433
*945 net434
*946 net435
*947 net436
*948 net437
*949 net438
*950 net439
*951 net44
*952 net440
*953 net441
*954 net442
*955 net443
*956 net444
*957 net445
*958 net446
*959 net447
*960 net448
*961 net449
*962 net45
*963 net450
*964 net451
*965 net452
*966 net453
*967 net454
*968 net455
*969 net456
*970 net457
*971 net458
*972 net459
*973 net46
*974 net460
*975 net461
*976 net462
*977 net463
*978 net464
*979 net465
*980 net466
*981 net467
*982 net468
*983 net469
*984 net47
*985 net470
*986 net471
*987 net472
*988 net473
*989 net474
*990 net475
*991 net476
*992 net477
*993 net478
*994 net479
*995 net48
*996 net480
*997 net481
*998 net482
*999 net483
*1000 net484
*1001 net485
*1002 net486
*1003 net487
*1004 net488
*1005 net489
*1006 net49
*1007 net490
*1008 net491
*1009 net492
*1010 net493
*1011 net494
*1012 net495
*1013 net496
*1014 net497
*1015 net498
*1016 net499
*1017 net5
*1018 net50
*1019 net500
*1020 net501
*1021 net502
*1022 net503
*1023 net504
*1024 net505
*1025 net506
*1026 net507
*1027 net508
*1028 net509
*1029 net51
*1030 net510
*1031 net511
*1032 net512
*1033 net513
*1034 net514
*1035 net515
*1036 net516
*1037 net517
*1038 net518
*1039 net519
*1040 net52
*1041 net520
*1042 net521
*1043 net522
*1044 net523
*1045 net524
*1046 net525
*1047 net526
*1048 net527
*1049 net528
*1050 net529
*1051 net53
*1052 net530
*1053 net531
*1054 net532
*1055 net533
*1056 net534
*1057 net535
*1058 net536
*1059 net537
*1060 net538
*1061 net539
*1062 net54
*1063 net540
*1064 net541
*1065 net542
*1066 net543
*1067 net544
*1068 net545
*1069 net546
*1070 net547
*1071 net548
*1072 net549
*1073 net55
*1074 net550
*1075 net551
*1076 net552
*1077 net553
*1078 net554
*1079 net555
*1080 net556
*1081 net557
*1082 net558
*1083 net559
*1084 net56
*1085 net560
*1086 net561
*1087 net562
*1088 net563
*1089 net564
*1090 net565
*1091 net566
*1092 net567
*1093 net568
*1094 net569
*1095 net57
*1096 net570
*1097 net571
*1098 net572
*1099 net573
*1100 net574
*1101 net575
*1102 net576
*1103 net577
*1104 net578
*1105 net579
*1106 net58
*1107 net580
*1108 net581
*1109 net582
*1110 net583
*1111 net584
*1112 net585
*1113 net586
*1114 net587
*1115 net588
*1116 net589
*1117 net59
*1118 net590
*1119 net591
*1120 net592
*1121 net593
*1122 net594
*1123 net595
*1124 net596
*1125 net597
*1126 net598
*1127 net599
*1128 net6
*1129 net60
*1130 net600
*1131 net601
*1132 net602
*1133 net603
*1134 net604
*1135 net605
*1136 net606
*1137 net607
*1138 net608
*1139 net609
*1140 net61
*1141 net610
*1142 net611
*1143 net612
*1144 net613
*1145 net614
*1146 net615
*1147 net616
*1148 net617
*1149 net618
*1150 net619
*1151 net62
*1152 net620
*1153 net621
*1154 net622
*1155 net623
*1156 net624
*1157 net625
*1158 net626
*1159 net627
*1160 net628
*1161 net629
*1162 net63
*1163 net630
*1164 net631
*1165 net632
*1166 net633
*1167 net634
*1168 net635
*1169 net636
*1170 net637
*1171 net638
*1172 net639
*1173 net64
*1174 net640
*1175 net641
*1176 net642
*1177 net643
*1178 net644
*1179 net645
*1180 net646
*1181 net647
*1182 net648
*1183 net649
*1184 net65
*1185 net650
*1186 net651
*1187 net652
*1188 net653
*1189 net654
*1190 net655
*1191 net656
*1192 net657
*1193 net658
*1194 net659
*1195 net66
*1196 net660
*1197 net661
*1198 net662
*1199 net663
*1200 net664
*1201 net665
*1202 net666
*1203 net667
*1204 net668
*1205 net669
*1206 net67
*1207 net670
*1208 net671
*1209 net672
*1210 net673
*1211 net674
*1212 net675
*1213 net676
*1214 net677
*1215 net678
*1216 net679
*1217 net68
*1218 net680
*1219 net681
*1220 net682
*1221 net683
*1222 net684
*1223 net685
*1224 net686
*1225 net687
*1226 net688
*1227 net689
*1228 net69
*1229 net690
*1230 net691
*1231 net692
*1232 net693
*1233 net694
*1234 net695
*1235 net696
*1236 net697
*1237 net698
*1238 net699
*1239 net7
*1240 net70
*1241 net700
*1242 net701
*1243 net702
*1244 net703
*1245 net704
*1246 net705
*1247 net706
*1248 net707
*1249 net708
*1250 net709
*1251 net71
*1252 net710
*1253 net711
*1254 net712
*1255 net713
*1256 net714
*1257 net715
*1258 net716
*1259 net717
*1260 net718
*1261 net719
*1262 net72
*1263 net720
*1264 net721
*1265 net722
*1266 net723
*1267 net724
*1268 net725
*1269 net726
*1270 net727
*1271 net728
*1272 net729
*1273 net73
*1274 net730
*1275 net731
*1276 net732
*1277 net733
*1278 net734
*1279 net735
*1280 net736
*1281 net737
*1282 net738
*1283 net739
*1284 net74
*1285 net740
*1286 net741
*1287 net742
*1288 net743
*1289 net744
*1290 net745
*1291 net746
*1292 net747
*1293 net748
*1294 net749
*1295 net75
*1296 net750
*1297 net751
*1298 net752
*1299 net753
*1300 net754
*1301 net755
*1302 net756
*1303 net757
*1304 net758
*1305 net759
*1306 net76
*1307 net760
*1308 net761
*1309 net762
*1310 net763
*1311 net764
*1312 net765
*1313 net766
*1314 net767
*1315 net768
*1316 net769
*1317 net77
*1318 net770
*1319 net771
*1320 net772
*1321 net773
*1322 net774
*1323 net775
*1324 net776
*1325 net777
*1326 net778
*1327 net779
*1328 net78
*1329 net780
*1330 net781
*1331 net782
*1332 net783
*1333 net784
*1334 net785
*1335 net786
*1336 net787
*1337 net788
*1338 net789
*1339 net79
*1340 net790
*1341 net791
*1342 net792
*1343 net793
*1344 net794
*1345 net795
*1346 net796
*1347 net797
*1348 net798
*1349 net799
*1350 net8
*1351 net80
*1352 net800
*1353 net801
*1354 net802
*1355 net803
*1356 net804
*1357 net805
*1358 net806
*1359 net807
*1360 net808
*1361 net809
*1362 net81
*1363 net810
*1364 net811
*1365 net812
*1366 net813
*1367 net814
*1368 net815
*1369 net816
*1370 net817
*1371 net818
*1372 net819
*1373 net82
*1374 net820
*1375 net821
*1376 net822
*1377 net823
*1378 net824
*1379 net825
*1380 net826
*1381 net827
*1382 net828
*1383 net829
*1384 net83
*1385 net830
*1386 net831
*1387 net832
*1388 net833
*1389 net834
*1390 net835
*1391 net836
*1392 net837
*1393 net838
*1394 net839
*1395 net84
*1396 net840
*1397 net841
*1398 net842
*1399 net843
*1400 net844
*1401 net845
*1402 net846
*1403 net847
*1404 net848
*1405 net849
*1406 net85
*1407 net850
*1408 net851
*1409 net852
*1410 net853
*1411 net854
*1412 net855
*1413 net856
*1414 net857
*1415 net858
*1416 net859
*1417 net86
*1418 net860
*1419 net861
*1420 net862
*1421 net863
*1422 net864
*1423 net865
*1424 net866
*1425 net867
*1426 net868
*1427 net869
*1428 net87
*1429 net870
*1430 net871
*1431 net872
*1432 net873
*1433 net874
*1434 net875
*1435 net876
*1436 net877
*1437 net878
*1438 net879
*1439 net88
*1440 net880
*1441 net881
*1442 net882
*1443 net883
*1444 net884
*1445 net885
*1446 net886
*1447 net887
*1448 net888
*1449 net889
*1450 net89
*1451 net890
*1452 net891
*1453 net892
*1454 net893
*1455 net894
*1456 net895
*1457 net896
*1458 net897
*1459 net898
*1460 net899
*1461 net9
*1462 net90
*1463 net900
*1464 net901
*1465 net902
*1466 net903
*1467 net904
*1468 net905
*1469 net906
*1470 net907
*1471 net908
*1472 net909
*1473 net91
*1474 net910
*1475 net911
*1476 net912
*1477 net913
*1478 net914
*1479 net915
*1480 net916
*1481 net917
*1482 net918
*1483 net919
*1484 net92
*1485 net920
*1486 net921
*1487 net922
*1488 net923
*1489 net924
*1490 net925
*1491 net926
*1492 net927
*1493 net928
*1494 net929
*1495 net93
*1496 net930
*1497 net931
*1498 net932
*1499 net933
*1500 net934
*1501 net935
*1502 net936
*1503 net937
*1504 net938
*1505 net939
*1506 net94
*1507 net940
*1508 net941
*1509 net942
*1510 net943
*1511 net944
*1512 net945
*1513 net946
*1514 net947
*1515 net948
*1516 net949
*1517 net95
*1518 net950
*1519 net951
*1520 net952
*1521 net953
*1522 net954
*1523 net955
*1524 net956
*1525 net957
*1526 net958
*1527 net959
*1528 net96
*1529 net960
*1530 net961
*1531 net962
*1532 net963
*1533 net964
*1534 net965
*1535 net966
*1536 net967
*1537 net968
*1538 net969
*1539 net97
*1540 net970
*1541 net971
*1542 net972
*1543 net973
*1544 net974
*1545 net975
*1546 net976
*1547 net977
*1548 net978
*1549 net979
*1550 net98
*1551 net980
*1552 net981
*1553 net982
*1554 net983
*1555 net984
*1556 net985
*1557 net986
*1558 net987
*1559 net988
*1560 net989
*1561 net99
*1562 net990
*1563 net991
*1564 net992
*1565 net993
*1566 net994
*1567 net995
*1568 net996
*1569 net997
*1570 net998
*1571 net999
*1572 ANTENNA_c147_A
*1573 ANTENNA_c149_A1
*1574 ANTENNA_c165_B1_N
*1575 ANTENNA_c192_Y
*1576 ANTENNA_c195_X
*1577 ANTENNA_c200_SCD
*1578 ANTENNA_c201_SCE
*1579 ANTENNA_c202_A2
*1580 ANTENNA_c203_S0
*1581 ANTENNA_c206_A3
*1582 ANTENNA_c209_A3
*1583 ANTENNA_c211_A
*1584 ANTENNA_c230_X
*1585 ANTENNA_c240_X
*1586 ANTENNA_c242_A4
*1587 ANTENNA_c250_A1
*1588 ANTENNA_c251_A2
*1589 ANTENNA_c252_A
*1590 ANTENNA_c25_B
*1591 ANTENNA_c26_B1_N
*1592 ANTENNA_c293_X
*1593 ANTENNA_c315_A
*1594 ANTENNA_c324_X
*1595 ANTENNA_c326_SCD
*1596 ANTENNA_c327_A3
*1597 ANTENNA_c329_A3
*1598 ANTENNA_c332_SCD
*1599 ANTENNA_c332_SET_B
*1600 ANTENNA_c339_A1
*1601 ANTENNA_c33_Y
*1602 ANTENNA_c349_SCD
*1603 ANTENNA_c354_S0
*1604 ANTENNA_c359_A
*1605 ANTENNA_c35_A3
*1606 ANTENNA_c360_B
*1607 ANTENNA_c36_SET_B
*1608 ANTENNA_c373_S0
*1609 ANTENNA_c37_A3
*1610 ANTENNA_c385_Q_N
*1611 ANTENNA_c38_RESET_B
*1612 ANTENNA_c392_S1
*1613 ANTENNA_c395_SCE
*1614 ANTENNA_c403_SCE
*1615 ANTENNA_c407_SCD
*1616 ANTENNA_c407_SET_B
*1617 ANTENNA_c408_SET_B
*1618 ANTENNA_c40_A2
*1619 ANTENNA_c411_RESET_B
*1620 ANTENNA_c411_SET_B
*1621 ANTENNA_c41_A2
*1622 ANTENNA_c426_A
*1623 ANTENNA_c427_Y
*1624 ANTENNA_c428_A2
*1625 ANTENNA_c42_A
*1626 ANTENNA_c433_B1
*1627 ANTENNA_c434_A2
*1628 ANTENNA_c435_S0
*1629 ANTENNA_c436_SCD
*1630 ANTENNA_c437_S0
*1631 ANTENNA_c438_S0
*1632 ANTENNA_c43_B
*1633 ANTENNA_c449_A2
*1634 ANTENNA_c461_S1
*1635 ANTENNA_c464_B
*1636 ANTENNA_c469_A4
*1637 ANTENNA_c469_B1
*1638 ANTENNA_c528_X
*1639 ANTENNA_c532_A1
*1640 ANTENNA_c532_S0
*1641 ANTENNA_c534_B1_N
*1642 ANTENNA_c535_SCE
*1643 ANTENNA_c536_SCD
*1644 ANTENNA_c538_A3
*1645 ANTENNA_c53_A2
*1646 ANTENNA_c545_A1
*1647 ANTENNA_c548_X
*1648 ANTENNA_c549_D
*1649 ANTENNA_c550_D
*1650 ANTENNA_c550_DE
*1651 ANTENNA_c551_RESET_B
*1652 ANTENNA_c556_B
*1653 ANTENNA_c557_A2
*1654 ANTENNA_c560_A2
*1655 ANTENNA_c561_D
*1656 ANTENNA_c561_SCE
*1657 ANTENNA_c563_DE
*1658 ANTENNA_c566_SCE
*1659 ANTENNA_c571_B
*1660 ANTENNA_c590_B
*1661 ANTENNA_c604_A1
*1662 ANTENNA_c630_A
*1663 ANTENNA_c631_B
*1664 ANTENNA_c632_B
*1665 ANTENNA_c637_SCE
*1666 ANTENNA_c642_B1
*1667 ANTENNA_c647_S0
*1668 ANTENNA_c68_A2
*1669 ANTENNA_c691_A1
*1670 ANTENNA_c692_A2
*1671 ANTENNA_c70_SET_B
*1672 ANTENNA_c76_B1
*1673 ANTENNA_c77_S0
*1674 ANTENNA_c78_S0
*1675 ANTENNA_c79_S0
*1676 ANTENNA_c80_D
*1677 ANTENNA_c81_A3
*1678 ANTENNA_clkbuf_0_clk_A
*1679 ANTENNA_clkbuf_0_clk_X
*1680 ANTENNA_clkbuf_2_0__f_clk_A
*1681 ANTENNA_clkbuf_2_0__f_clk_X
*1682 ANTENNA_clkbuf_2_1__f_clk_A
*1683 ANTENNA_clkbuf_2_1__f_clk_X
*1684 ANTENNA_clkbuf_2_2__f_clk_A
*1685 ANTENNA_clkbuf_2_2__f_clk_X
*1686 ANTENNA_clkbuf_2_3__f_clk_A
*1687 ANTENNA_clkbuf_2_3__f_clk_X
*1688 ANTENNA_clkbuf_leaf_0_clk_A
*1689 ANTENNA_clkbuf_leaf_10_clk_A
*1690 ANTENNA_clkbuf_leaf_11_clk_A
*1691 ANTENNA_clkbuf_leaf_12_clk_A
*1692 ANTENNA_clkbuf_leaf_13_clk_A
*1693 ANTENNA_clkbuf_leaf_14_clk_A
*1694 ANTENNA_clkbuf_leaf_15_clk_A
*1695 ANTENNA_clkbuf_leaf_16_clk_A
*1696 ANTENNA_clkbuf_leaf_17_clk_A
*1697 ANTENNA_clkbuf_leaf_18_clk_A
*1698 ANTENNA_clkbuf_leaf_19_clk_A
*1699 ANTENNA_clkbuf_leaf_1_clk_A
*1700 ANTENNA_clkbuf_leaf_20_clk_A
*1701 ANTENNA_clkbuf_leaf_21_clk_A
*1702 ANTENNA_clkbuf_leaf_22_clk_A
*1703 ANTENNA_clkbuf_leaf_23_clk_A
*1704 ANTENNA_clkbuf_leaf_24_clk_A
*1705 ANTENNA_clkbuf_leaf_25_clk_A
*1706 ANTENNA_clkbuf_leaf_26_clk_A
*1707 ANTENNA_clkbuf_leaf_27_clk_A
*1708 ANTENNA_clkbuf_leaf_28_clk_A
*1709 ANTENNA_clkbuf_leaf_29_clk_A
*1710 ANTENNA_clkbuf_leaf_2_clk_A
*1711 ANTENNA_clkbuf_leaf_30_clk_A
*1712 ANTENNA_clkbuf_leaf_31_clk_A
*1713 ANTENNA_clkbuf_leaf_32_clk_A
*1714 ANTENNA_clkbuf_leaf_33_clk_A
*1715 ANTENNA_clkbuf_leaf_34_clk_A
*1716 ANTENNA_clkbuf_leaf_35_clk_A
*1717 ANTENNA_clkbuf_leaf_36_clk_A
*1718 ANTENNA_clkbuf_leaf_37_clk_A
*1719 ANTENNA_clkbuf_leaf_38_clk_A
*1720 ANTENNA_clkbuf_leaf_39_clk_A
*1721 ANTENNA_clkbuf_leaf_3_clk_A
*1722 ANTENNA_clkbuf_leaf_40_clk_A
*1723 ANTENNA_clkbuf_leaf_41_clk_A
*1724 ANTENNA_clkbuf_leaf_42_clk_A
*1725 ANTENNA_clkbuf_leaf_43_clk_A
*1726 ANTENNA_clkbuf_leaf_44_clk_A
*1727 ANTENNA_clkbuf_leaf_45_clk_A
*1728 ANTENNA_clkbuf_leaf_46_clk_A
*1729 ANTENNA_clkbuf_leaf_47_clk_A
*1730 ANTENNA_clkbuf_leaf_48_clk_A
*1731 ANTENNA_clkbuf_leaf_4_clk_A
*1732 ANTENNA_clkbuf_leaf_5_clk_A
*1733 ANTENNA_clkbuf_leaf_6_clk_A
*1734 ANTENNA_clkbuf_leaf_7_clk_A
*1735 ANTENNA_clkbuf_leaf_8_clk_A
*1736 ANTENNA_clkbuf_leaf_9_clk_A
*1737 ANTENNA_fanout39_A
*1738 ANTENNA_fanout39_X
*1739 ANTENNA_fanout40_X
*1740 ANTENNA_fanout41_X
*1741 ANTENNA_fanout49_A
*1742 ANTENNA_fanout50_X
*1743 ANTENNA_fanout55_X
*1744 ANTENNA_hold30_A
*1745 ANTENNA_hold81_A
*1746 ANTENNA_hold88_A
*1747 ANTENNA_input10_A
*1748 ANTENNA_input11_A
*1749 ANTENNA_input12_A
*1750 ANTENNA_input13_A
*1751 ANTENNA_input14_A
*1752 ANTENNA_input15_A
*1753 ANTENNA_input16_A
*1754 ANTENNA_input17_A
*1755 ANTENNA_input18_A
*1756 ANTENNA_input19_A
*1757 ANTENNA_input1_A
*1758 ANTENNA_input20_A
*1759 ANTENNA_input21_A
*1760 ANTENNA_input22_A
*1761 ANTENNA_input23_A
*1762 ANTENNA_input24_A
*1763 ANTENNA_input2_A
*1764 ANTENNA_input3_A
*1765 ANTENNA_input4_A
*1766 ANTENNA_input5_A
*1767 ANTENNA_input6_A
*1768 ANTENNA_input7_A
*1769 ANTENNA_input8_A
*1770 ANTENNA_input9_A
*1771 ANTENNA_merge740_RESET_B
*1772 ANTENNA_merge740_SCD
*1773 ANTENNA_merge740_SCE
*1774 ANTENNA_merge743_RESET_B
*1775 ANTENNA_merge744_D
*1776 ANTENNA_merge754_SCD
*1777 ANTENNA_merge754_SCE
*1778 ANTENNA_merge756_A
*1779 ANTENNA_merge759_A2
*1780 ANTENNA_merge762_RESET_B
*1781 ANTENNA_merge771_RESET_B
*1782 ANTENNA_merge774_SCE
*1783 ANTENNA_merge776_D
*1784 ANTENNA_merge776_RESET_B
*1785 ANTENNA_merge782_SET_B
*1786 ANTENNA_merge784_A1
*1787 ANTENNA_merge784_A2
*1788 ANTENNA_merge784_S1
*1789 ANTENNA_merge785_A0
*1790 ANTENNA_merge788_A3
*1791 ANTENNA_merge788_S0
*1792 ANTENNA_merge788_S1
*1793 ANTENNA_merge789_A2
*1794 ANTENNA_merge793_S0
*1795 ANTENNA_merge795_A2
*1796 ANTENNA_merge797_S1
*1797 ANTENNA_merge798_A0
*1798 ANTENNA_merge798_S0