*SPEF "ieee 1481-1999"
*DESIGN "netlist_1"
*DATE "23:12:25 Saturday August 17, 2024"
*VENDOR "The OpenROAD Project"
*PROGRAM "OpenROAD"
*VERSION "d423155d69de7f683a23f6916ead418a615ad4ad"
*DESIGN_FLOW "NAME_SCOPE LOCAL" "PIN_CAP NONE"
*DIVIDER /
*DELIMITER :
*BUS_DELIMITER []
*T_UNIT 1 NS
*C_UNIT 1 PF
*R_UNIT 1 OHM
*L_UNIT 1 HENRY

*NAME_MAP
*3 clk
*4 in0
*5 in1
*6 in10
*7 in11
*8 in12
*9 in13
*10 in14
*11 in15
*12 in16
*13 in17
*14 in18
*15 in19
*16 in2
*17 in20
*18 in21
*19 in22
*20 in23
*21 in24
*22 in3
*23 in4
*24 in5
*25 in6
*26 in7
*27 in8
*28 in9
*29 out0
*30 out1
*31 out10
*32 out11
*33 out12
*34 out13
*35 out14
*36 out15
*37 out16
*38 out17
*39 out18
*40 out19
*41 out2
*42 out20
*43 out21
*44 out22
*45 out23
*46 out24
*47 out3
*48 out4
*49 out5
*50 out6
*51 out7
*52 out8
*53 out9
*54 rst
*55 clknet_0_clk
*56 clknet_0_net121
*57 clknet_0_net123
*58 clknet_0_net128
*59 clknet_0_net129
*60 clknet_0_net131
*61 clknet_0_net140
*62 clknet_0_net141
*63 clknet_0_net142
*64 clknet_0_net144
*65 clknet_0_net145
*66 clknet_0_net146
*67 clknet_0_net153
*68 clknet_0_net193
*69 clknet_0_net196
*70 clknet_0_net365
*71 clknet_0_net366
*72 clknet_0_net368
*73 clknet_0_net369
*74 clknet_0_net370
*75 clknet_0_net374
*76 clknet_0_net380
*77 clknet_0_net382
*78 clknet_0_net501
*79 clknet_0_net503
*80 clknet_0_net579
*81 clknet_0_net674
*82 clknet_0_net678
*83 clknet_0_net688
*84 clknet_0_net690
*85 clknet_0_net694
*86 clknet_0_net702
*87 clknet_0_net720
*88 clknet_0_net721
*89 clknet_0_net722
*90 clknet_0_net723
*91 clknet_0_net724
*92 clknet_0_net727
*93 clknet_0_net751
*94 clknet_0_net895
*95 clknet_0_net897
*96 clknet_0_net931
*97 clknet_0_net932
*98 clknet_0_net940
*99 clknet_0_net941
*100 clknet_0_net942
*101 clknet_0_net961
*102 clknet_0_net962
*103 clknet_0_net963
*104 clknet_0_net989
*105 clknet_0_net998
*106 clknet_1_0__leaf_net121
*107 clknet_1_0__leaf_net123
*108 clknet_1_0__leaf_net128
*109 clknet_1_0__leaf_net129
*110 clknet_1_0__leaf_net131
*111 clknet_1_0__leaf_net140
*112 clknet_1_0__leaf_net141
*113 clknet_1_0__leaf_net142
*114 clknet_1_0__leaf_net144
*115 clknet_1_0__leaf_net145
*116 clknet_1_0__leaf_net146
*117 clknet_1_0__leaf_net153
*118 clknet_1_0__leaf_net193
*119 clknet_1_0__leaf_net196
*120 clknet_1_0__leaf_net365
*121 clknet_1_0__leaf_net366
*122 clknet_1_0__leaf_net368
*123 clknet_1_0__leaf_net369
*124 clknet_1_0__leaf_net370
*125 clknet_1_0__leaf_net374
*126 clknet_1_0__leaf_net380
*127 clknet_1_0__leaf_net382
*128 clknet_1_0__leaf_net501
*129 clknet_1_0__leaf_net503
*130 clknet_1_0__leaf_net579
*131 clknet_1_0__leaf_net674
*132 clknet_1_0__leaf_net678
*133 clknet_1_0__leaf_net688
*134 clknet_1_0__leaf_net690
*135 clknet_1_0__leaf_net694
*136 clknet_1_0__leaf_net702
*137 clknet_1_0__leaf_net720
*138 clknet_1_0__leaf_net721
*139 clknet_1_0__leaf_net722
*140 clknet_1_0__leaf_net723
*141 clknet_1_0__leaf_net724
*142 clknet_1_0__leaf_net727
*143 clknet_1_0__leaf_net751
*144 clknet_1_0__leaf_net895
*145 clknet_1_0__leaf_net897
*146 clknet_1_0__leaf_net931
*147 clknet_1_0__leaf_net932
*148 clknet_1_0__leaf_net940
*149 clknet_1_0__leaf_net941
*150 clknet_1_0__leaf_net942
*151 clknet_1_0__leaf_net961
*152 clknet_1_0__leaf_net962
*153 clknet_1_0__leaf_net963
*154 clknet_1_0__leaf_net989
*155 clknet_1_0__leaf_net998
*156 clknet_1_1__leaf_net121
*157 clknet_1_1__leaf_net123
*158 clknet_1_1__leaf_net128
*159 clknet_1_1__leaf_net129
*160 clknet_1_1__leaf_net131
*161 clknet_1_1__leaf_net140
*162 clknet_1_1__leaf_net141
*163 clknet_1_1__leaf_net142
*164 clknet_1_1__leaf_net144
*165 clknet_1_1__leaf_net145
*166 clknet_1_1__leaf_net146
*167 clknet_1_1__leaf_net153
*168 clknet_1_1__leaf_net193
*169 clknet_1_1__leaf_net196
*170 clknet_1_1__leaf_net365
*171 clknet_1_1__leaf_net366
*172 clknet_1_1__leaf_net368
*173 clknet_1_1__leaf_net369
*174 clknet_1_1__leaf_net370
*175 clknet_1_1__leaf_net374
*176 clknet_1_1__leaf_net380
*177 clknet_1_1__leaf_net382
*178 clknet_1_1__leaf_net501
*179 clknet_1_1__leaf_net503
*180 clknet_1_1__leaf_net579
*181 clknet_1_1__leaf_net674
*182 clknet_1_1__leaf_net678
*183 clknet_1_1__leaf_net688
*184 clknet_1_1__leaf_net690
*185 clknet_1_1__leaf_net694
*186 clknet_1_1__leaf_net702
*187 clknet_1_1__leaf_net720
*188 clknet_1_1__leaf_net721
*189 clknet_1_1__leaf_net722
*190 clknet_1_1__leaf_net723
*191 clknet_1_1__leaf_net724
*192 clknet_1_1__leaf_net727
*193 clknet_1_1__leaf_net751
*194 clknet_1_1__leaf_net895
*195 clknet_1_1__leaf_net897
*196 clknet_1_1__leaf_net931
*197 clknet_1_1__leaf_net932
*198 clknet_1_1__leaf_net940
*199 clknet_1_1__leaf_net941
*200 clknet_1_1__leaf_net942
*201 clknet_1_1__leaf_net961
*202 clknet_1_1__leaf_net962
*203 clknet_1_1__leaf_net963
*204 clknet_1_1__leaf_net989
*205 clknet_1_1__leaf_net998
*206 clknet_4_0_0_clk
*207 clknet_4_10_0_clk
*208 clknet_4_11_0_clk
*209 clknet_4_12_0_clk
*210 clknet_4_13_0_clk
*211 clknet_4_14_0_clk
*212 clknet_4_15_0_clk
*213 clknet_4_1_0_clk
*214 clknet_4_2_0_clk
*215 clknet_4_3_0_clk
*216 clknet_4_4_0_clk
*217 clknet_4_5_0_clk
*218 clknet_4_6_0_clk
*219 clknet_4_7_0_clk
*220 clknet_4_8_0_clk
*221 clknet_4_9_0_clk
*222 net0
*223 net1
*224 net10
*225 net100
*226 net1000
*227 net1001
*228 net1002
*229 net1003
*230 net1004
*231 net1005
*232 net1006
*233 net1007
*234 net1008
*235 net1009
*236 net101
*237 net1010
*238 net1011
*239 net1012
*240 net1013
*241 net1014
*242 net1015
*243 net1016
*244 net1017
*245 net1018
*246 net1019
*247 net102
*248 net1020
*249 net1021
*250 net1022
*251 net1023
*252 net1024
*253 net1025
*254 net1026
*255 net1027
*256 net1028
*257 net103
*258 net1030
*259 net1031
*260 net1032
*261 net1033
*262 net1034
*263 net1035
*264 net1036
*265 net1037
*266 net1038
*267 net1039
*268 net104
*269 net1040
*270 net1041
*271 net1042
*272 net1043
*273 net1044
*274 net1045
*275 net1046
*276 net1047
*277 net1048
*278 net1049
*279 net105
*280 net1050
*281 net1051
*282 net1052
*283 net1053
*284 net1054
*285 net1055
*286 net1056
*287 net1057
*288 net1058
*289 net1059
*290 net106
*291 net1060
*292 net1061
*293 net1062
*294 net1063
*295 net1064
*296 net1065
*297 net1066
*298 net1067
*299 net1068
*300 net1069
*301 net107
*302 net1070
*303 net1071
*304 net108
*305 net109
*306 net11
*307 net110
*308 net111
*309 net112
*310 net113
*311 net114
*312 net115
*313 net116
*314 net117
*315 net118
*316 net119
*317 net12
*318 net120
*319 net121
*320 net122
*321 net123
*322 net124
*323 net125
*324 net126
*325 net127
*326 net128
*327 net129
*328 net13
*329 net130
*330 net131
*331 net132
*332 net133
*333 net134
*334 net135
*335 net136
*336 net137
*337 net138
*338 net139
*339 net14
*340 net140
*341 net141
*342 net142
*343 net143
*344 net144
*345 net145
*346 net146
*347 net147
*348 net148
*349 net149
*350 net15
*351 net150
*352 net151
*353 net152
*354 net153
*355 net154
*356 net155
*357 net156
*358 net157
*359 net158
*360 net159
*361 net16
*362 net160
*363 net161
*364 net162
*365 net163
*366 net164
*367 net165
*368 net166
*369 net167
*370 net168
*371 net169
*372 net17
*373 net170
*374 net171
*375 net172
*376 net173
*377 net174
*378 net175
*379 net176
*380 net177
*381 net178
*382 net179
*383 net18
*384 net180
*385 net181
*386 net182
*387 net183
*388 net184
*389 net185
*390 net186
*391 net187
*392 net188
*393 net189
*394 net19
*395 net190
*396 net191
*397 net192
*398 net193
*399 net194
*400 net195
*401 net196
*402 net197
*403 net198
*404 net199
*405 net2
*406 net20
*407 net200
*408 net201
*409 net202
*410 net203
*411 net204
*412 net205
*413 net206
*414 net207
*415 net208
*416 net209
*417 net21
*418 net210
*419 net211
*420 net212
*421 net213
*422 net214
*423 net215
*424 net216
*425 net217
*426 net218
*427 net219
*428 net22
*429 net220
*430 net221
*431 net222
*432 net223
*433 net224
*434 net225
*435 net226
*436 net227
*437 net228
*438 net229
*439 net23
*440 net230
*441 net231
*442 net232
*443 net233
*444 net234
*445 net235
*446 net236
*447 net237
*448 net238
*449 net239
*450 net24
*451 net240
*452 net241
*453 net242
*454 net243
*455 net244
*456 net245
*457 net246
*458 net247
*459 net248
*460 net249
*461 net25
*462 net250
*463 net251
*464 net252
*465 net253
*466 net254
*467 net255
*468 net256
*469 net257
*470 net258
*471 net259
*472 net26
*473 net260
*474 net261
*475 net262
*476 net263
*477 net264
*478 net265
*479 net266
*480 net267
*481 net268
*482 net269
*483 net27
*484 net270
*485 net271
*486 net272
*487 net273
*488 net274
*489 net275
*490 net276
*491 net277
*492 net278
*493 net279
*494 net28
*495 net280
*496 net281
*497 net282
*498 net283
*499 net284
*500 net285
*501 net286
*502 net287
*503 net288
*504 net289
*505 net29
*506 net290
*507 net291
*508 net292
*509 net293
*510 net294
*511 net295
*512 net296
*513 net297
*514 net298
*515 net299
*516 net3
*517 net30
*518 net300
*519 net301
*520 net302
*521 net303
*522 net304
*523 net305
*524 net306
*525 net307
*526 net308
*527 net309
*528 net31
*529 net310
*530 net311
*531 net312
*532 net313
*533 net314
*534 net315
*535 net316
*536 net317
*537 net318
*538 net319
*539 net32
*540 net320
*541 net321
*542 net322
*543 net323
*544 net324
*545 net325
*546 net326
*547 net327
*548 net328
*549 net329
*550 net33
*551 net330
*552 net331
*553 net332
*554 net333
*555 net334
*556 net335
*557 net336
*558 net337
*559 net338
*560 net339
*561 net34
*562 net340
*563 net341
*564 net342
*565 net343
*566 net344
*567 net345
*568 net346
*569 net347
*570 net348
*571 net349
*572 net35
*573 net350
*574 net351
*575 net352
*576 net353
*577 net354
*578 net355
*579 net356
*580 net357
*581 net358
*582 net359
*583 net36
*584 net360
*585 net361
*586 net362
*587 net363
*588 net364
*589 net365
*590 net366
*591 net367
*592 net368
*593 net369
*594 net37
*595 net370
*596 net371
*597 net372
*598 net373
*599 net374
*600 net375
*601 net376
*602 net377
*603 net378
*604 net379
*605 net38
*606 net380
*607 net381
*608 net382
*609 net383
*610 net384
*611 net385
*612 net386
*613 net387
*614 net388
*615 net389
*616 net39
*617 net390
*618 net391
*619 net392
*620 net393
*621 net394
*622 net395
*623 net396
*624 net397
*625 net398
*626 net399
*627 net4
*628 net40
*629 net400
*630 net401
*631 net402
*632 net403
*633 net404
*634 net405
*635 net406
*636 net407
*637 net408
*638 net409
*639 net41
*640 net410
*641 net411
*642 net412
*643 net413
*644 net414
*645 net415
*646 net416
*647 net417
*648 net418
*649 net419
*650 net42
*651 net420
*652 net421
*653 net422
*654 net423
*655 net424
*656 net425
*657 net426
*658 net427
*659 net428
*660 net429
*661 net43
*662 net430
*663 net431
*664 net432
*665 net433
*666 net434
*667 net435
*668 net436
*669 net437
*670 net438
*671 net439
*672 net44
*673 net440
*674 net441
*675 net442
*676 net443
*677 net444
*678 net445
*679 net446
*680 net447
*681 net448
*682 net449
*683 net45
*684 net450
*685 net451
*686 net452
*687 net453
*688 net454
*689 net455
*690 net456
*691 net457
*692 net458
*693 net459
*694 net46
*695 net460
*696 net461
*697 net462
*698 net463
*699 net464
*700 net465
*701 net466
*702 net467
*703 net468
*704 net469
*705 net47
*706 net470
*707 net471
*708 net472
*709 net473
*710 net474
*711 net475
*712 net476
*713 net477
*714 net478
*715 net479
*716 net48
*717 net480
*718 net481
*719 net482
*720 net483
*721 net484
*722 net485
*723 net486
*724 net487
*725 net488
*726 net489
*727 net49
*728 net490
*729 net491
*730 net492
*731 net493
*732 net494
*733 net495
*734 net496
*735 net497
*736 net498
*737 net499
*738 net5
*739 net50
*740 net500
*741 net501
*742 net502
*743 net503
*744 net504
*745 net505
*746 net506
*747 net507
*748 net508
*749 net509
*750 net51
*751 net510
*752 net511
*753 net512
*754 net513
*755 net514
*756 net515
*757 net516
*758 net517
*759 net518
*760 net519
*761 net52
*762 net520
*763 net521
*764 net522
*765 net523
*766 net524
*767 net525
*768 net526
*769 net527
*770 net528
*771 net529
*772 net53
*773 net530
*774 net531
*775 net532
*776 net533
*777 net534
*778 net535
*779 net536
*780 net537
*781 net538
*782 net539
*783 net54
*784 net540
*785 net541
*786 net542
*787 net543
*788 net544
*789 net545
*790 net546
*791 net547
*792 net548
*793 net549
*794 net55
*795 net550
*796 net551
*797 net552
*798 net553
*799 net554
*800 net555
*801 net556
*802 net557
*803 net558
*804 net559
*805 net56
*806 net560
*807 net561
*808 net562
*809 net563
*810 net564
*811 net565
*812 net566
*813 net567
*814 net568
*815 net569
*816 net57
*817 net570
*818 net571
*819 net572
*820 net573
*821 net574
*822 net575
*823 net576
*824 net577
*825 net578
*826 net579
*827 net58
*828 net580
*829 net581
*830 net582
*831 net583
*832 net584
*833 net585
*834 net586
*835 net587
*836 net588
*837 net589
*838 net59
*839 net590
*840 net591
*841 net592
*842 net593
*843 net594
*844 net595
*845 net596
*846 net597
*847 net598
*848 net599
*849 net6
*850 net60
*851 net600
*852 net601
*853 net602
*854 net603
*855 net604
*856 net605
*857 net606
*858 net607
*859 net608
*860 net609
*861 net61
*862 net610
*863 net611
*864 net612
*865 net613
*866 net614
*867 net615
*868 net616
*869 net617
*870 net618
*871 net619
*872 net62
*873 net620
*874 net621
*875 net622
*876 net623
*877 net624
*878 net625
*879 net626
*880 net627
*881 net628
*882 net629
*883 net63
*884 net630
*885 net631
*886 net632
*887 net633
*888 net634
*889 net635
*890 net636
*891 net637
*892 net638
*893 net639
*894 net64
*895 net640
*896 net641
*897 net642
*898 net643
*899 net644
*900 net645
*901 net646
*902 net647
*903 net648
*904 net649
*905 net65
*906 net650
*907 net651
*908 net652
*909 net653
*910 net654
*911 net655
*912 net656
*913 net657
*914 net658
*915 net659
*916 net66
*917 net660
*918 net661
*919 net662
*920 net663
*921 net664
*922 net665
*923 net666
*924 net667
*925 net668
*926 net669
*927 net67
*928 net670
*929 net671
*930 net672
*931 net673
*932 net674
*933 net675
*934 net676
*935 net677
*936 net678
*937 net679
*938 net68
*939 net680
*940 net681
*941 net682
*942 net683
*943 net684
*944 net685
*945 net686
*946 net687
*947 net688
*948 net689
*949 net69
*950 net690
*951 net691
*952 net692
*953 net693
*954 net694
*955 net695
*956 net696
*957 net697
*958 net698
*959 net699
*960 net7
*961 net70
*962 net700
*963 net701
*964 net702
*965 net703
*966 net704
*967 net705
*968 net706
*969 net707
*970 net708
*971 net709
*972 net71
*973 net710
*974 net711
*975 net712
*976 net713
*977 net714
*978 net715
*979 net716
*980 net717
*981 net718
*982 net719
*983 net72
*984 net720
*985 net721
*986 net722
*987 net723
*988 net724
*989 net725
*990 net726
*991 net727
*992 net728
*993 net729
*994 net73
*995 net730
*996 net731
*997 net732
*998 net733
*999 net734
*1000 net735
*1001 net736
*1002 net737
*1003 net738
*1004 net739
*1005 net74
*1006 net740
*1007 net741
*1008 net742
*1009 net743
*1010 net744
*1011 net745
*1012 net746
*1013 net747
*1014 net748
*1015 net749
*1016 net75
*1017 net750
*1018 net751
*1019 net752
*1020 net753
*1021 net754
*1022 net755
*1023 net756
*1024 net757
*1025 net758
*1026 net759
*1027 net76
*1028 net760
*1029 net761
*1030 net762
*1031 net763
*1032 net764
*1033 net765
*1034 net766
*1035 net767
*1036 net768
*1037 net769
*1038 net77
*1039 net770
*1040 net771
*1041 net772
*1042 net773
*1043 net774
*1044 net775
*1045 net776
*1046 net777
*1047 net778
*1048 net779
*1049 net78
*1050 net780
*1051 net781
*1052 net782
*1053 net783
*1054 net784
*1055 net785
*1056 net786
*1057 net787
*1058 net788
*1059 net789
*1060 net79
*1061 net790
*1062 net791
*1063 net792
*1064 net793
*1065 net794
*1066 net795
*1067 net796
*1068 net797
*1069 net798
*1070 net799
*1071 net8
*1072 net80
*1073 net800
*1074 net801
*1075 net802
*1076 net803
*1077 net804
*1078 net805
*1079 net806
*1080 net807
*1081 net808
*1082 net809
*1083 net81
*1084 net810
*1085 net811
*1086 net812
*1087 net813
*1088 net814
*1089 net815
*1090 net816
*1091 net817
*1092 net818
*1093 net819
*1094 net82
*1095 net820
*1096 net821
*1097 net822
*1098 net823
*1099 net824
*1100 net825
*1101 net826
*1102 net827
*1103 net828
*1104 net829
*1105 net83
*1106 net830
*1107 net831
*1108 net832
*1109 net833
*1110 net834
*1111 net835
*1112 net836
*1113 net837
*1114 net838
*1115 net839
*1116 net84
*1117 net840
*1118 net841
*1119 net842
*1120 net843
*1121 net844
*1122 net845
*1123 net846
*1124 net847
*1125 net848
*1126 net849
*1127 net85
*1128 net850
*1129 net851
*1130 net852
*1131 net853
*1132 net854
*1133 net855
*1134 net856
*1135 net857
*1136 net858
*1137 net859
*1138 net86
*1139 net860
*1140 net861
*1141 net862
*1142 net863
*1143 net864
*1144 net865
*1145 net866
*1146 net867
*1147 net868
*1148 net869
*1149 net87
*1150 net870
*1151 net871
*1152 net872
*1153 net873
*1154 net874
*1155 net875
*1156 net876
*1157 net877
*1158 net878
*1159 net879
*1160 net88
*1161 net880
*1162 net881
*1163 net882
*1164 net883
*1165 net884
*1166 net885
*1167 net886
*1168 net887
*1169 net888
*1170 net889
*1171 net89
*1172 net890
*1173 net891
*1174 net892
*1175 net893
*1176 net894
*1177 net895
*1178 net896
*1179 net897
*1180 net898
*1181 net899
*1182 net9
*1183 net90
*1184 net900
*1185 net901
*1186 net902
*1187 net903
*1188 net904
*1189 net905
*1190 net906
*1191 net907
*1192 net908
*1193 net909
*1194 net91
*1195 net910
*1196 net911
*1197 net912
*1198 net913
*1199 net914
*1200 net915
*1201 net916
*1202 net917
*1203 net918
*1204 net919
*1205 net92
*1206 net920
*1207 net921
*1208 net922
*1209 net923
*1210 net924
*1211 net925
*1212 net926
*1213 net927
*1214 net928
*1215 net929
*1216 net93
*1217 net930
*1218 net931
*1219 net932
*1220 net933
*1221 net934
*1222 net935
*1223 net936
*1224 net937
*1225 net938
*1226 net939
*1227 net94
*1228 net940
*1229 net941
*1230 net942
*1231 net943
*1232 net944
*1233 net945
*1234 net946
*1235 net947
*1236 net948
*1237 net949
*1238 net95
*1239 net950
*1240 net951
*1241 net952
*1242 net953
*1243 net954
*1244 net955
*1245 net956
*1246 net957
*1247 net958
*1248 net959
*1249 net96
*1250 net960
*1251 net961
*1252 net962
*1253 net963
*1254 net964
*1255 net965
*1256 net966
*1257 net967
*1258 net968
*1259 net969
*1260 net97
*1261 net970
*1262 net971
*1263 net972
*1264 net973
*1265 net974
*1266 net975
*1267 net976
*1268 net977
*1269 net978
*1270 net979
*1271 net98
*1272 net980
*1273 net981
*1274 net982
*1275 net983
*1276 net984
*1277 net985
*1278 net986
*1279 net987
*1280 net988
*1281 net989
*1282 net99
*1283 net990
*1284 net991
*1285 net992
*1286 net993
*1287 net994
*1288 net995
*1289 net996
*1290 net997
*1291 net998
*1292 net999
*1293 ANTENNA_c103_C_N
*1294 ANTENNA_c104_B
*1295 ANTENNA_c110_A
*1296 ANTENNA_c112_A
*1297 ANTENNA_c113_X
*1298 ANTENNA_c114_A
*1299 ANTENNA_c115_A
*1300 ANTENNA_c120_B
*1301 ANTENNA_c121_B
*1302 ANTENNA_c125_CLK_N
*1303 ANTENNA_c127_CLK
*1304 ANTENNA_c127_SET_B
*1305 ANTENNA_c130_C1
*1306 ANTENNA_c131_CLK
*1307 ANTENNA_c154_X
*1308 ANTENNA_c155_A
*1309 ANTENNA_c155_X
*1310 ANTENNA_c156_A
*1311 ANTENNA_c156_X
*1312 ANTENNA_c159_A
*1313 ANTENNA_c159_X
*1314 ANTENNA_c162_A
*1315 ANTENNA_c163_C
*1316 ANTENNA_c164_A
*1317 ANTENNA_c171_CLK
*1318 ANTENNA_c172_S0
*1319 ANTENNA_c174_C
*1320 ANTENNA_c175_A
*1321 ANTENNA_c177_A
*1322 ANTENNA_c178_B
*1323 ANTENNA_c189_A1
*1324 ANTENNA_c189_S1
*1325 ANTENNA_c196_B
*1326 ANTENNA_c197_CLK
*1327 ANTENNA_c200_X
*1328 ANTENNA_c201_A
*1329 ANTENNA_c204_B
*1330 ANTENNA_c213_CLK
*1331 ANTENNA_c219_CLK
*1332 ANTENNA_c224_B
*1333 ANTENNA_c226_A
*1334 ANTENNA_c230_CLK_N
*1335 ANTENNA_c233_B
*1336 ANTENNA_c240_Q
*1337 ANTENNA_c241_B
*1338 ANTENNA_c241_X
*1339 ANTENNA_c242_B
*1340 ANTENNA_c255_D1
*1341 ANTENNA_c266_X
*1342 ANTENNA_c270_X
*1343 ANTENNA_c276_B
*1344 ANTENNA_c276_X
*1345 ANTENNA_c277_B
*1346 ANTENNA_c278_X
*1347 ANTENNA_c280_C
*1348 ANTENNA_c283_D_N
*1349 ANTENNA_c284_A1
*1350 ANTENNA_c284_B1
*1351 ANTENNA_c284_C1
*1352 ANTENNA_c285_A2
*1353 ANTENNA_c285_A3
*1354 ANTENNA_c287_B
*1355 ANTENNA_c288_B
*1356 ANTENNA_c290_B
*1357 ANTENNA_c298_C1
*1358 ANTENNA_c299_A
*1359 ANTENNA_c324_CLK
*1360 ANTENNA_c325_CLK
*1361 ANTENNA_c325_Q
*1362 ANTENNA_c326_C
*1363 ANTENNA_c328_CLK_N
*1364 ANTENNA_c328_Q
*1365 ANTENNA_c32_B
*1366 ANTENNA_c334_B
*1367 ANTENNA_c335_B
*1368 ANTENNA_c346_A
*1369 ANTENNA_c351_S1
*1370 ANTENNA_c359_X
*1371 ANTENNA_c364_D_N
*1372 ANTENNA_c365_CLK_N
*1373 ANTENNA_c36_CLK_N
*1374 ANTENNA_c370_CLK
*1375 ANTENNA_c372_CLK_N
*1376 ANTENNA_c374_X
*1377 ANTENNA_c375_A
*1378 ANTENNA_c378_B
*1379 ANTENNA_c388_CLK_N
*1380 ANTENNA_c388_SET_B
*1381 ANTENNA_c390_A1
*1382 ANTENNA_c401_SET_B
*1383 ANTENNA_c410_CLK
*1384 ANTENNA_c417_X
*1385 ANTENNA_c433_CLK
*1386 ANTENNA_c438_X
*1387 ANTENNA_c43_S0
*1388 ANTENNA_c43_X
*1389 ANTENNA_c442_B
*1390 ANTENNA_c443_B
*1391 ANTENNA_c445_X
*1392 ANTENNA_c44_A
*1393 ANTENNA_c452_A
*1394 ANTENNA_c453_X
*1395 ANTENNA_c455_B
*1396 ANTENNA_c455_C
*1397 ANTENNA_c458_CLK_N
*1398 ANTENNA_c458_RESET_B
*1399 ANTENNA_c458_SCD
*1400 ANTENNA_c45_A
*1401 ANTENNA_c460_S0
*1402 ANTENNA_c461_CLK
*1403 ANTENNA_c461_SCD
*1404 ANTENNA_c461_SCE
*1405 ANTENNA_c463_X
*1406 ANTENNA_c465_A
*1407 ANTENNA_c465_X
*1408 ANTENNA_c469_X
*1409 ANTENNA_c470_C
*1410 ANTENNA_c473_A
*1411 ANTENNA_c474_B
*1412 ANTENNA_c475_X
*1413 ANTENNA_c478_A2
*1414 ANTENNA_c478_A3
*1415 ANTENNA_c478_S0
*1416 ANTENNA_c479_CLK
*1417 ANTENNA_c479_SCE
*1418 ANTENNA_c481_A3
*1419 ANTENNA_c482_X
*1420 ANTENNA_c483_A1
*1421 ANTENNA_c483_A2
*1422 ANTENNA_c483_S0
*1423 ANTENNA_c483_S1
*1424 ANTENNA_c484_A
*1425 ANTENNA_c484_B
*1426 ANTENNA_c484_C
*1427 ANTENNA_c484_X
*1428 ANTENNA_c489_X
*1429 ANTENNA_c495_C
*1430 ANTENNA_c501_S0
*1431 ANTENNA_c510_B
*1432 ANTENNA_c511_A
*1433 ANTENNA_c519_S0
*1434 ANTENNA_c519_S1
*1435 ANTENNA_c538_CLK
*1436 ANTENNA_c546_CLK_N
*1437 ANTENNA_c549_CLK_N
*1438 ANTENNA_c549_Q_N
*1439 ANTENNA_c554_X
*1440 ANTENNA_c555_CLK
*1441 ANTENNA_c555_Q
*1442 ANTENNA_c557_A
*1443 ANTENNA_c561_A
*1444 ANTENNA_c568_X
*1445 ANTENNA_c570_CLK_N
*1446 ANTENNA_c571_C
*1447 ANTENNA_c579_X
*1448 ANTENNA_c583_CLK
*1449 ANTENNA_c583_SCD
*1450 ANTENNA_c58_Q_N
*1451 ANTENNA_c593_A3
*1452 ANTENNA_c593_X
*1453 ANTENNA_c598_CLK
*1454 ANTENNA_c598_SCE
*1455 ANTENNA_c599_B
*1456 ANTENNA_c606_CLK
*1457 ANTENNA_c606_Q
*1458 ANTENNA_c607_S1
*1459 ANTENNA_c608_CLK
*1460 ANTENNA_c610_CLK
*1461 ANTENNA_c612_B
*1462 ANTENNA_c613_A
*1463 ANTENNA_c613_B
*1464 ANTENNA_c615_A2
*1465 ANTENNA_c615_X
*1466 ANTENNA_c617_A
*1467 ANTENNA_c626_A
*1468 ANTENNA_c632_B1
*1469 ANTENNA_c633_A
*1470 ANTENNA_c634_CLK
*1471 ANTENNA_c637_CLK_N
*1472 ANTENNA_c65_A
*1473 ANTENNA_c65_X
*1474 ANTENNA_c66_B
*1475 ANTENNA_c671_CLK_N
*1476 ANTENNA_c672_CLK_N
*1477 ANTENNA_c673_CLK
*1478 ANTENNA_c676_CLK
*1479 ANTENNA_c712_CLK
*1480 ANTENNA_c721_CLK
*1481 ANTENNA_c725_A3
*1482 ANTENNA_c726_A
*1483 ANTENNA_c746_A3
*1484 ANTENNA_c746_S0
*1485 ANTENNA_c753_CLK_N
*1486 ANTENNA_c75_X
*1487 ANTENNA_c82_A
*1488 ANTENNA_c83_A
*1489 ANTENNA_c87_D1
*1490 ANTENNA_c95_X
*1491 ANTENNA_c96_B
*1492 ANTENNA_clkbuf_0_clk_A
*1493 ANTENNA_clkbuf_0_clk_X
*1494 ANTENNA_clkbuf_0_net897_A
*1495 ANTENNA_clkbuf_1_0__f_net365_X
*1496 ANTENNA_clkbuf_1_0__f_net503_X
*1497 ANTENNA_clkbuf_4_0_0_clk_A
*1498 ANTENNA_clkbuf_4_10_0_clk_A
*1499 ANTENNA_clkbuf_4_10_0_clk_X
*1500 ANTENNA_clkbuf_4_11_0_clk_A
*1501 ANTENNA_clkbuf_4_11_0_clk_X
*1502 ANTENNA_clkbuf_4_12_0_clk_A
*1503 ANTENNA_clkbuf_4_12_0_clk_X
*1504 ANTENNA_clkbuf_4_13_0_clk_A
*1505 ANTENNA_clkbuf_4_13_0_clk_X
*1506 ANTENNA_clkbuf_4_14_0_clk_A
*1507 ANTENNA_clkbuf_4_14_0_clk_X
*1508 ANTENNA_clkbuf_4_15_0_clk_A
*1509 ANTENNA_clkbuf_4_1_0_clk_A
*1510 ANTENNA_clkbuf_4_1_0_clk_X
*1511 ANTENNA_clkbuf_4_2_0_clk_A
*1512 ANTENNA_clkbuf_4_2_0_clk_X
*1513 ANTENNA_clkbuf_4_3_0_clk_A
*1514 ANTENNA_clkbuf_4_4_0_clk_A
*1515 ANTENNA_clkbuf_4_4_0_clk_X
*1516 ANTENNA_clkbuf_4_5_0_clk_A
*1517 ANTENNA_clkbuf_4_6_0_clk_A
*1518 ANTENNA_clkbuf_4_7_0_clk_A
*1519 ANTENNA_clkbuf_4_7_0_clk_X
*1520 ANTENNA_clkbuf_4_8_0_clk_A
*1521 ANTENNA_clkbuf_4_8_0_clk_X
*1522 ANTENNA_clkbuf_4_9_0_clk_A
*1523 ANTENNA_clkbuf_4_9_0_clk_X
*1524 ANTENNA_fanout36_A
*1525 ANTENNA_fanout36_X
*1526 ANTENNA_hold28_A
*1527 ANTENNA_hold44_A
*1528 ANTENNA_hold55_A
*1529 ANTENNA_hold57_A
*1530 ANTENNA_hold6_A
*1531 ANTENNA_input10_A
*1532 ANTENNA_input11_A
*1533 ANTENNA_input12_A
*1534 ANTENNA_input13_A
*1535 ANTENNA_input14_A
*1536 ANTENNA_input15_A
*1537 ANTENNA_input16_A
*1538 ANTENNA_input17_A
*1539 ANTENNA_input17_X
*1540 ANTENNA_input18_A
*1541 ANTENNA_input19_A
*1542 ANTENNA_input1_A
*1543 ANTENNA_input20_A
*1544 ANTENNA_input21_A
*1545 ANTENNA_input22_A
*1546 ANTENNA_input23_A
*1547 ANTENNA_input24_A
*1548 ANTENNA_input2_A
*1549 ANTENNA_input3_A
*1550 ANTENNA_input4_A
*1551 ANTENNA_input5_A
*1552 ANTENNA_input6_A
*1553 ANTENNA_input7_A
*1554 ANTENNA_input8_A
*1555 ANTENNA_input9_A
*1556 ANTENNA_merge757_CLK
*1557 ANTENNA_merge761_D
*1558 ANTENNA_merge762_A
*1559 ANTENNA_merge763_X
*1560 ANTENNA_merge764_B
*1561 ANTENNA_merge765_CLK
*1562 ANTENNA_merge767_CLK
*1563 ANTENNA_merge768_CLK
*1564 ANTENNA_merge770_CLK
*1565 ANTENNA_merge770_SCD
*1566 ANTENNA_merge777_CLK
*1567 ANTENNA_merge777_SCD
*1568 ANTENNA_merge778_A
*1569 ANTENNA_merge779_CLK
*1570 ANTENNA_merge780_A
*1571 ANTENNA_merge784_DE
*1572 ANTENNA_merge784_SCE
*1573 ANTENNA_merge786_A
*1574 ANTENNA_merge788_CLK_N
*1575 ANTENNA_merge789_CLK
*1576 ANTENNA_merge789_SET_B
*1577 ANTENNA_merge790_CLK
*1578 ANTENNA_merge791_CLK
*1579 ANTENNA_merge791_DE
*1580 ANTENNA_merge791_Q
*1581 ANTENNA_merge791_SCD
*1582 ANTENNA_merge791_SCE
*1583 ANTENNA_merge793_CLK
*1584 ANTENNA_merge794_CLK
*1585 ANTENNA_merge795_CLK
*1586 ANTENNA_merge795_D
*1587 ANTENNA_merge796_CLK_N
*1588 ANTENNA_merge798_CLK
*1589 ANTENNA_merge799_CLK
*1590 ANTENNA_merge800_D_N
*1591 ANTENNA_merge801_D_N
*1592 ANTENNA_merge802_CLK
*1593 ANTENNA_merge803_CLK
*1594 ANTENNA_merge804_C_N
*1595 ANTENNA_merge805_CLK
*1596 ANTENNA_merge805_SET_B
*1597 ANTENNA_merge807_CLK
*1598 ANTENNA_merge807_SCD
*1599 ANTENNA_merge809_CLK
*1600 ANTENNA_merge809_SCE
*1601 ANTENNA_merge810_CLK
*1602 ANTENNA_merge810_SCD
*1603 ANTENNA_merge811_CLK
*1604 ANTENNA_merge812_CLK
*1605 ANTENNA_merge813_CLK
*1606 ANTENNA_merge813_D
*1607 ANTENNA_merge813_SCE
*1608 ANTENNA_merge814_CLK
*1609 ANTENNA_merge814_SCD
*1610 ANTENNA_merge815_CLK
*1611 ANTENNA_merge816_DE
*1612 ANTENNA_merge817_CLK
*1613 ANTENNA_merge817_SCE
*1614 ANTENNA_merge818_CLK
*1615 ANTENNA_merge818_SCE
*1616 ANTENNA_merge819_CLK_N
*1617 ANTENNA_merge819_D
*1618 ANTENNA_merge820_CLK
*1619 ANTENNA_merge820_D
*1620 ANTENNA_merge820_SCD
*1621 ANTENNA_merge821_RESET_B
*1622 ANTENNA_merge821_SCE
*1623 ANTENNA_merge822_SCE
*1624 ANTENNA_merge825_CLK
*1625 ANTENNA_merge826_Q
*1626 ANTENNA_merge826_SCE
*1627 ANTENNA_merge827_CLK
*1628 ANTENNA_merge828_CLK
*1629 ANTENNA_merge829_CLK
*1630 ANTENNA_merge829_SCE
*1631 ANTENNA_merge830_CLK
*1632 ANTENNA_merge831_CLK
*1633 ANTENNA_merge831_SCE
*1634 ANTENNA_merge832_CLK
*1635 ANTENNA_merge833_CLK
*1636 ANTENNA_merge834_CLK
*1637 ANTENNA_merge836_CLK
*1638 ANTENNA_merge837_A2
*1639 ANTENNA_merge838_A2
*1640 ANTENNA_merge840_A3
*1641 ANTENNA_merge840_S0
*1642 ANTENNA_merge841_S1
*1643 ANTENNA_merge842_A3
*1644 ANTENNA_merge842_S0
*1645 ANTENNA_merge844_A0
*1646 ANTENNA_merge844_A1
*1647 ANTENNA_merge844_A2
*1648 ANTENNA_merge845_A3
*1649 ANTENNA_merge845_S0
*1650 ANTENNA_merge845_S1
*1651 ANTENNA_merge846_CLK_N
*1652 ANTENNA_merge846_SCE
*1653 ANTENNA_merge847_A0
*1654 ANTENNA_merge847_A1
*1655 ANTENNA_merge847_A2
*1656 ANTENNA_merge848_A3
*1657 ANTENNA_merge852_A1
*1658 ANTENNA_merge852_A2
*1659 ANTENNA_merge852_S1
*1660 ANTENNA_merge853_CLK_N
*1661 ANTENNA_merge853_RESET_B
*1662 ANTENNA_merge853_SCE
*1663 ANTENNA_merge853_SET_B
*1664 ANTENNA_merge854_A3
*1665 ANTENNA_merge854_S0
*1666 ANTENNA_merge855_S0
*1667 ANTENNA_merge855_S1
*1668 ANTENNA_merge856_CLK
*1669 ANTENNA_merge857_A3
*1670 ANTENNA_merge857_S0
*1671 ANTENNA_merge857_S1
*1672 ANTENNA_merge858_A0
*1673 ANTENNA_merge859_A1
*1674 ANTENNA_merge859_A2
*1675 ANTENNA_merge859_S0
*1676 ANTENNA_merge859_S1
*1677 ANTENNA_merge861_A3
*1678 ANTENNA_merge861_S0
*1679 ANTENNA_merge867_CLK
*1680 ANTENNA_merge868_CLK
*1681 ANTENNA_merge869_CLK
*1682 ANTENNA_merge871_CLK
*1683 ANTENNA_merge872_CLK
*1684 ANTENNA_merge873_CLK
*1685 ANTENNA_merge874_CLK
*1686 ANTENNA_merge875_GATE_N
*1687 ANTENNA_merge876_GATE_N
*1688 ANTENNA_merge877_GATE
*1689 ANTENNA_merge878_GATE
*1690 ANTENNA_merge879_GATE_N
*1691 ANTENNA_merge883_GATE
*1692 ANTENNA_merge884_GATE
*1693 ANTENNA_merge885_GATE
*1694 ANTENNA_merge887_CLK
*1695 ANTENNA_merge888_CLK
*1696 ANTENNA_merge889_CLK
*1697 ANTENNA_merge891_CLK
*1698 ANTENNA_merge891_GCLK
*1699 ANTENNA_merge893_CLK
*1700 ANTENNA_merge894_CLK
*1701 ANTENNA_merge896_CLK
*1702 ANTENNA_merge896_Q
*1703 ANTENNA_merge897_CLK
*1704 ANTENNA_merge898_CLK
*1705 ANTENNA_merge899_CLK
*1706 ANTENNA_merge902_CLK
*1707 ANTENNA_merge902_D
*1708 ANTENNA_merge904_D
*1709 ANTENNA_merge904_Q
*1710 ANTENNA_merge906_GATE
*1711 ANTENNA_merge907_GATE
*1712 ANTENNA_merge907_Q_N
*1713 ANTENNA_merge909_GATE_N
*1714 ANTENNA_merge909_Q
*1715 ANTENNA_merge911_GATE
*1716 ANTENNA_merge912_GATE
*1717 ANTENNA_merge913_GATE
*1718 ANTENNA_merge914_CLK
*1719 ANTENNA_merge915_CLK
*1720 ANTENNA_merge916_CLK
*1721 ANTENNA_merge917_CLK
*1722 ANTENNA_output30_A
*1723 ANTENNA_s919_CLK
*1724 ANTENNA_s920_CLK
*1725 ANTENNA_s922_CLK
*1726 ANTENNA_s923_CLK
*1727 ANTENNA_s924_CLK
*1728 ANTENNA_s926_GATE_N
*1729 ANTENNA_s927_GATE_N
*1730 ANTENNA_s931_GATE_N
*1731 ANTENNA_s934_CLK
*1732 ANTENNA_s935_CLK
*1733 ANTENNA_s936_CLK
*1734 ANTENNA_s937_CLK
*1735 ANTENNA_s938_CLK
*1736 ANTENNA_s939_CLK
*1737 ANTENNA_s942_GATE_N
*1738 ANTENNA_s943_GATE_N
*1739 FILLER_0_0_109
*1740 FILLER_0_0_113
*1741 FILLER_0_0_125
*1742 FILLER_0_0_137
*1743 FILLER_0_0_141
*1744 FILLER_0_0_15
*1745 FILLER_0_0_153
*1746 FILLER_0_0_165
*1747 FILLER_0_0_169
*1748 FILLER_0_0_181
*1749 FILLER_0_0_193
*1750 FILLER_0_0_197
*1751 FILLER_0_0_209
*1752 FILLER_0_0_221
*1753 FILLER_0_0_225
*1754 FILLER_0_0_237
*1755 FILLER_0_0_249
*1756 FILLER_0_0_253
*1757 FILLER_0_0_265
*1758 FILLER_0_0_27
*1759 FILLER_0_0_277
*1760 FILLER_0_0_281
*1761 FILLER_0_0_29
*1762 FILLER_0_0_293
*1763 FILLER_0_0_3
*1764 FILLER_0_0_305
*1765 FILLER_0_0_309
*1766 FILLER_0_0_321
*1767 FILLER_0_0_333
*1768 FILLER_0_0_337
*1769 FILLER_0_0_349
*1770 FILLER_0_0_361
*1771 FILLER_0_0_365
*1772 FILLER_0_0_377
*1773 FILLER_0_0_389
*1774 FILLER_0_0_393
*1775 FILLER_0_0_405