*SPEF "ieee 1481-1999"
*DESIGN "netlist_0"
*DATE "23:46:52 Sunday July 28, 2024"
*VENDOR "The OpenROAD Project"
*PROGRAM "OpenROAD"
*VERSION "d423155d69de7f683a23f6916ead418a615ad4ad"
*DESIGN_FLOW "NAME_SCOPE LOCAL" "PIN_CAP NONE"
*DIVIDER /
*DELIMITER :
*BUS_DELIMITER []
*T_UNIT 1 NS
*C_UNIT 1 PF
*R_UNIT 1 OHM
*L_UNIT 1 HENRY

*NAME_MAP
*3 clk
*4 in0
*5 in1
*6 in10
*7 in11
*8 in12
*9 in13
*10 in14
*11 in15
*12 in16
*13 in17
*14 in18
*15 in19
*16 in2
*17 in20
*18 in21
*19 in22
*20 in23
*21 in24
*22 in25
*23 in26
*24 in27
*25 in28
*26 in29
*27 in3
*28 in30
*29 in31
*30 in32
*31 in33
*32 in34
*33 in35
*34 in36
*35 in37
*36 in38
*37 in39
*38 in4
*39 in40
*40 in41
*41 in42
*42 in43
*43 in44
*44 in45
*45 in46
*46 in47
*47 in48
*48 in49
*49 in5
*50 in50
*51 in51
*52 in52
*53 in53
*54 in54
*55 in55
*56 in56
*57 in57
*58 in58
*59 in59
*60 in6
*61 in60
*62 in61
*63 in7
*64 in8
*65 in9
*66 out0
*67 out1
*68 out10
*69 out11
*70 out12
*71 out13
*72 out14
*73 out15
*74 out16
*75 out17
*76 out18
*77 out19
*78 out2
*79 out20
*80 out21
*81 out22
*82 out23
*83 out24
*84 out25
*85 out26
*86 out27
*87 out28
*88 out29
*89 out3
*90 out30
*91 out31
*92 out32
*93 out33
*94 out34
*95 out35
*96 out36
*97 out37
*98 out38
*99 out39
*100 out4
*101 out40
*102 out41
*103 out42
*104 out43
*105 out44
*106 out45
*107 out46
*108 out47
*109 out48
*110 out49
*111 out5
*112 out50
*113 out51
*114 out52
*115 out53
*116 out54
*117 out55
*118 out56
*119 out57
*120 out58
*121 out59
*122 out6
*123 out60
*124 out61
*125 out7
*126 out8
*127 out9
*128 rst
*129 clknet_0_clk
*130 clknet_0_net158
*131 clknet_0_net162
*132 clknet_0_net165
*133 clknet_0_net244
*134 clknet_0_net251
*135 clknet_0_net255
*136 clknet_0_net256
*137 clknet_0_net258
*138 clknet_0_net261
*139 clknet_0_net262
*140 clknet_0_net283
*141 clknet_0_net327
*142 clknet_0_net329
*143 clknet_0_net357
*144 clknet_0_net363
*145 clknet_0_net378
*146 clknet_0_net397
*147 clknet_0_net435
*148 clknet_0_net457
*149 clknet_0_net458
*150 clknet_0_net471
*151 clknet_0_net478
*152 clknet_0_net479
*153 clknet_0_net516
*154 clknet_0_net523
*155 clknet_0_net538
*156 clknet_0_net540
*157 clknet_0_net542
*158 clknet_0_net546
*159 clknet_0_net554
*160 clknet_0_net557
*161 clknet_0_net559
*162 clknet_0_net563
*163 clknet_0_net565
*164 clknet_0_net591
*165 clknet_0_net701
*166 clknet_0_net703
*167 clknet_0_net742
*168 clknet_0_net743
*169 clknet_0_net759
*170 clknet_0_net760
*171 clknet_0_net777
*172 clknet_0_net778
*173 clknet_0_net779
*174 clknet_0_net796
*175 clknet_0_net797
*176 clknet_0_net798
*177 clknet_0_net889
*178 clknet_0_net891
*179 clknet_0_net902
*180 clknet_0_net906
*181 clknet_0_net919
*182 clknet_1_0__leaf_net158
*183 clknet_1_0__leaf_net162
*184 clknet_1_0__leaf_net165
*185 clknet_1_0__leaf_net244
*186 clknet_1_0__leaf_net251
*187 clknet_1_0__leaf_net255
*188 clknet_1_0__leaf_net256
*189 clknet_1_0__leaf_net258
*190 clknet_1_0__leaf_net261
*191 clknet_1_0__leaf_net262
*192 clknet_1_0__leaf_net283
*193 clknet_1_0__leaf_net327
*194 clknet_1_0__leaf_net329
*195 clknet_1_0__leaf_net357
*196 clknet_1_0__leaf_net363
*197 clknet_1_0__leaf_net378
*198 clknet_1_0__leaf_net397
*199 clknet_1_0__leaf_net435
*200 clknet_1_0__leaf_net457
*201 clknet_1_0__leaf_net458
*202 clknet_1_0__leaf_net471
*203 clknet_1_0__leaf_net478
*204 clknet_1_0__leaf_net479
*205 clknet_1_0__leaf_net516
*206 clknet_1_0__leaf_net523
*207 clknet_1_0__leaf_net538
*208 clknet_1_0__leaf_net540
*209 clknet_1_0__leaf_net542
*210 clknet_1_0__leaf_net546
*211 clknet_1_0__leaf_net554
*212 clknet_1_0__leaf_net557
*213 clknet_1_0__leaf_net559
*214 clknet_1_0__leaf_net563
*215 clknet_1_0__leaf_net565
*216 clknet_1_0__leaf_net591
*217 clknet_1_0__leaf_net701
*218 clknet_1_0__leaf_net703
*219 clknet_1_0__leaf_net742
*220 clknet_1_0__leaf_net743
*221 clknet_1_0__leaf_net759
*222 clknet_1_0__leaf_net760
*223 clknet_1_0__leaf_net777
*224 clknet_1_0__leaf_net778
*225 clknet_1_0__leaf_net779
*226 clknet_1_0__leaf_net796
*227 clknet_1_0__leaf_net797
*228 clknet_1_0__leaf_net798
*229 clknet_1_0__leaf_net889
*230 clknet_1_0__leaf_net891
*231 clknet_1_0__leaf_net902
*232 clknet_1_0__leaf_net906
*233 clknet_1_0__leaf_net919
*234 clknet_1_1__leaf_net158
*235 clknet_1_1__leaf_net162
*236 clknet_1_1__leaf_net165
*237 clknet_1_1__leaf_net244
*238 clknet_1_1__leaf_net251
*239 clknet_1_1__leaf_net255
*240 clknet_1_1__leaf_net256
*241 clknet_1_1__leaf_net258
*242 clknet_1_1__leaf_net261
*243 clknet_1_1__leaf_net262
*244 clknet_1_1__leaf_net283
*245 clknet_1_1__leaf_net327
*246 clknet_1_1__leaf_net329
*247 clknet_1_1__leaf_net357
*248 clknet_1_1__leaf_net363
*249 clknet_1_1__leaf_net378
*250 clknet_1_1__leaf_net397
*251 clknet_1_1__leaf_net435
*252 clknet_1_1__leaf_net457
*253 clknet_1_1__leaf_net458
*254 clknet_1_1__leaf_net471
*255 clknet_1_1__leaf_net478
*256 clknet_1_1__leaf_net479
*257 clknet_1_1__leaf_net516
*258 clknet_1_1__leaf_net523
*259 clknet_1_1__leaf_net538
*260 clknet_1_1__leaf_net540
*261 clknet_1_1__leaf_net542
*262 clknet_1_1__leaf_net546
*263 clknet_1_1__leaf_net554
*264 clknet_1_1__leaf_net557
*265 clknet_1_1__leaf_net559
*266 clknet_1_1__leaf_net563
*267 clknet_1_1__leaf_net565
*268 clknet_1_1__leaf_net591
*269 clknet_1_1__leaf_net701
*270 clknet_1_1__leaf_net703
*271 clknet_1_1__leaf_net742
*272 clknet_1_1__leaf_net743
*273 clknet_1_1__leaf_net759
*274 clknet_1_1__leaf_net760
*275 clknet_1_1__leaf_net777
*276 clknet_1_1__leaf_net778
*277 clknet_1_1__leaf_net779
*278 clknet_1_1__leaf_net796
*279 clknet_1_1__leaf_net797
*280 clknet_1_1__leaf_net798
*281 clknet_1_1__leaf_net889
*282 clknet_1_1__leaf_net891
*283 clknet_1_1__leaf_net902
*284 clknet_1_1__leaf_net906
*285 clknet_1_1__leaf_net919
*286 clknet_4_0_0_clk
*287 clknet_4_10_0_clk
*288 clknet_4_11_0_clk
*289 clknet_4_12_0_clk
*290 clknet_4_13_0_clk
*291 clknet_4_14_0_clk
*292 clknet_4_15_0_clk
*293 clknet_4_1_0_clk
*294 clknet_4_2_0_clk
*295 clknet_4_3_0_clk
*296 clknet_4_4_0_clk
*297 clknet_4_5_0_clk
*298 clknet_4_6_0_clk
*299 clknet_4_7_0_clk
*300 clknet_4_8_0_clk
*301 clknet_4_9_0_clk
*302 net0
*303 net1
*304 net10
*305 net100
*306 net1000
*307 net1001
*308 net1002
*309 net1003
*310 net1004
*311 net1005
*312 net1006
*313 net1007
*314 net1008
*315 net1009
*316 net101
*317 net1010
*318 net1011
*319 net1012
*320 net1013
*321 net1014
*322 net1015
*323 net1016
*324 net1017
*325 net1018
*326 net1019
*327 net102
*328 net1020
*329 net1021
*330 net1022
*331 net1023
*332 net1024
*333 net1025
*334 net1026
*335 net1027
*336 net1028
*337 net1029
*338 net103
*339 net1030
*340 net1031
*341 net1032
*342 net1033
*343 net104
*344 net105
*345 net106
*346 net107
*347 net108
*348 net109
*349 net11
*350 net110
*351 net111
*352 net112
*353 net113
*354 net114
*355 net115
*356 net116
*357 net117
*358 net118
*359 net119
*360 net12
*361 net120
*362 net121
*363 net122
*364 net123
*365 net124
*366 net125
*367 net126
*368 net127
*369 net128
*370 net129
*371 net13
*372 net130
*373 net131
*374 net132
*375 net133
*376 net134
*377 net135
*378 net136
*379 net137
*380 net138
*381 net139
*382 net14
*383 net140
*384 net141
*385 net142
*386 net143
*387 net144
*388 net145
*389 net146
*390 net147
*391 net148
*392 net149
*393 net15
*394 net150
*395 net151
*396 net152
*397 net153
*398 net154
*399 net155
*400 net156
*401 net157
*402 net158
*403 net159
*404 net16
*405 net160
*406 net161
*407 net162
*408 net163
*409 net164
*410 net165
*411 net166
*412 net167
*413 net168
*414 net169
*415 net17
*416 net170
*417 net171
*418 net172
*419 net173
*420 net174
*421 net175
*422 net176
*423 net177
*424 net178
*425 net179
*426 net18
*427 net180
*428 net181
*429 net182
*430 net183
*431 net184
*432 net185
*433 net186
*434 net187
*435 net188
*436 net189
*437 net19
*438 net190
*439 net191
*440 net192
*441 net193
*442 net194
*443 net195
*444 net196
*445 net197
*446 net198
*447 net199
*448 net2
*449 net20
*450 net200
*451 net201
*452 net202
*453 net203
*454 net204
*455 net205
*456 net206
*457 net207
*458 net208
*459 net209
*460 net21
*461 net210
*462 net211
*463 net212
*464 net213
*465 net214
*466 net215
*467 net216
*468 net217
*469 net218
*470 net219
*471 net22
*472 net220
*473 net221
*474 net222
*475 net223
*476 net224
*477 net225
*478 net226
*479 net227
*480 net228
*481 net229
*482 net23
*483 net230
*484 net231
*485 net232
*486 net233
*487 net234
*488 net235
*489 net236
*490 net237
*491 net238
*492 net239
*493 net24
*494 net240
*495 net241
*496 net242
*497 net243
*498 net244
*499 net245
*500 net246
*501 net247
*502 net248
*503 net249
*504 net25
*505 net250
*506 net251
*507 net252
*508 net253
*509 net254
*510 net255
*511 net256
*512 net257
*513 net258
*514 net259
*515 net26
*516 net260
*517 net261
*518 net262
*519 net263
*520 net264
*521 net265
*522 net266
*523 net267
*524 net268
*525 net269
*526 net27
*527 net270
*528 net271
*529 net272
*530 net273
*531 net274
*532 net275
*533 net276
*534 net277
*535 net278
*536 net279
*537 net28
*538 net280
*539 net281
*540 net282
*541 net283
*542 net284
*543 net285
*544 net286
*545 net287
*546 net288
*547 net289
*548 net29
*549 net290
*550 net291
*551 net292
*552 net293
*553 net294
*554 net295
*555 net296
*556 net297
*557 net298
*558 net299
*559 net3
*560 net30
*561 net300
*562 net301
*563 net302
*564 net303
*565 net304
*566 net305
*567 net306
*568 net307
*569 net308
*570 net309
*571 net31
*572 net310
*573 net311
*574 net312
*575 net313
*576 net314
*577 net315
*578 net316
*579 net317
*580 net318
*581 net319
*582 net32
*583 net320
*584 net321
*585 net322
*586 net323
*587 net324
*588 net325
*589 net326
*590 net327
*591 net328
*592 net329
*593 net33
*594 net330
*595 net331
*596 net332
*597 net333
*598 net334
*599 net335
*600 net336
*601 net337
*602 net338
*603 net339
*604 net34
*605 net340
*606 net341
*607 net342
*608 net343
*609 net344
*610 net345
*611 net346
*612 net347
*613 net348
*614 net349
*615 net35
*616 net350
*617 net351
*618 net352
*619 net353
*620 net354
*621 net355
*622 net356
*623 net357
*624 net358
*625 net359
*626 net36
*627 net360
*628 net361
*629 net362
*630 net363
*631 net364
*632 net365
*633 net366
*634 net367
*635 net368
*636 net369
*637 net37
*638 net370
*639 net371
*640 net372
*641 net373
*642 net374
*643 net375
*644 net376
*645 net377
*646 net378
*647 net379
*648 net38
*649 net380
*650 net381
*651 net382
*652 net383
*653 net384
*654 net385
*655 net386
*656 net387
*657 net388
*658 net389
*659 net39
*660 net390
*661 net391
*662 net392
*663 net393
*664 net394
*665 net395
*666 net396
*667 net397
*668 net398
*669 net399
*670 net4
*671 net40
*672 net400
*673 net401
*674 net402
*675 net403
*676 net404
*677 net405
*678 net406
*679 net407
*680 net408
*681 net409
*682 net41
*683 net410
*684 net411
*685 net412
*686 net413
*687 net414
*688 net415
*689 net416
*690 net417
*691 net418
*692 net419
*693 net42
*694 net420
*695 net421
*696 net422
*697 net423
*698 net424
*699 net425
*700 net426
*701 net427
*702 net428
*703 net429
*704 net43
*705 net430
*706 net431
*707 net432
*708 net433
*709 net434
*710 net435
*711 net436
*712 net437
*713 net438
*714 net439
*715 net44
*716 net440
*717 net441
*718 net442
*719 net443
*720 net444
*721 net445
*722 net446
*723 net447
*724 net448
*725 net449
*726 net45
*727 net450
*728 net451
*729 net452
*730 net453
*731 net454
*732 net455
*733 net456
*734 net457
*735 net458
*736 net459
*737 net46
*738 net460
*739 net461
*740 net462
*741 net463
*742 net464
*743 net465
*744 net466
*745 net467
*746 net468
*747 net469
*748 net47
*749 net470
*750 net471
*751 net472
*752 net473
*753 net474
*754 net475
*755 net476
*756 net477
*757 net478
*758 net479
*759 net48
*760 net480
*761 net481
*762 net482
*763 net483
*764 net484
*765 net485
*766 net486
*767 net487
*768 net488
*769 net489
*770 net49
*771 net490
*772 net491
*773 net492
*774 net493
*775 net494
*776 net495
*777 net496
*778 net497
*779 net498
*780 net499
*781 net5
*782 net50
*783 net500
*784 net501
*785 net502
*786 net503
*787 net504
*788 net505
*789 net506
*790 net507
*791 net508
*792 net509
*793 net51
*794 net510
*795 net511
*796 net512
*797 net513
*798 net514
*799 net515
*800 net516
*801 net517
*802 net518
*803 net519
*804 net52
*805 net520
*806 net521
*807 net522
*808 net523
*809 net524
*810 net525
*811 net526
*812 net527
*813 net528
*814 net529
*815 net53
*816 net530
*817 net531
*818 net532
*819 net533
*820 net534
*821 net535
*822 net536
*823 net537
*824 net538
*825 net539
*826 net54
*827 net540
*828 net541
*829 net542
*830 net543
*831 net544
*832 net545
*833 net546
*834 net547
*835 net548
*836 net549
*837 net55
*838 net550
*839 net551
*840 net552
*841 net553
*842 net554
*843 net555
*844 net556
*845 net557
*846 net558
*847 net559
*848 net56
*849 net560
*850 net561
*851 net562
*852 net563
*853 net564
*854 net565
*855 net566
*856 net567
*857 net568
*858 net569
*859 net57
*860 net570
*861 net571
*862 net572
*863 net573
*864 net574
*865 net575
*866 net576
*867 net577
*868 net578
*869 net579
*870 net58
*871 net580
*872 net581
*873 net582
*874 net583
*875 net584
*876 net585
*877 net586
*878 net587
*879 net588
*880 net589
*881 net59
*882 net590
*883 net591
*884 net592
*885 net593
*886 net594
*887 net595
*888 net596
*889 net597
*890 net598
*891 net599
*892 net6
*893 net60
*894 net600
*895 net601
*896 net602
*897 net603
*898 net604
*899 net605
*900 net606
*901 net607
*902 net608
*903 net609
*904 net61
*905 net610
*906 net611
*907 net612
*908 net613
*909 net614
*910 net615
*911 net616
*912 net617
*913 net618
*914 net619
*915 net62
*916 net620
*917 net621
*918 net622
*919 net623
*920 net624
*921 net625
*922 net626
*923 net627
*924 net628
*925 net629
*926 net63
*927 net630
*928 net631
*929 net632
*930 net633
*931 net634
*932 net635
*933 net636
*934 net637
*935 net638
*936 net639
*937 net64
*938 net640
*939 net641
*940 net642
*941 net643
*942 net644
*943 net645
*944 net646
*945 net647
*946 net648
*947 net649
*948 net65
*949 net650
*950 net651
*951 net652
*952 net653
*953 net654
*954 net655
*955 net656
*956 net657
*957 net658
*958 net659
*959 net66
*960 net660
*961 net661
*962 net662
*963 net663
*964 net664
*965 net665
*966 net666
*967 net667
*968 net668
*969 net669
*970 net67
*971 net670
*972 net671
*973 net672
*974 net673
*975 net674
*976 net675
*977 net676
*978 net677
*979 net678
*980 net679
*981 net68
*982 net680
*983 net681
*984 net682
*985 net683
*986 net684
*987 net685
*988 net686
*989 net687
*990 net688
*991 net689
*992 net69
*993 net690
*994 net691
*995 net692
*996 net693
*997 net694
*998 net695
*999 net696
*1000 net697
*1001 net698
*1002 net699
*1003 net7
*1004 net70
*1005 net700
*1006 net701
*1007 net702
*1008 net703
*1009 net704
*1010 net705
*1011 net706
*1012 net707
*1013 net708
*1014 net709
*1015 net71
*1016 net710
*1017 net711
*1018 net712
*1019 net713
*1020 net714
*1021 net715
*1022 net716
*1023 net717
*1024 net718
*1025 net719
*1026 net72
*1027 net720
*1028 net721
*1029 net722
*1030 net723
*1031 net724
*1032 net725
*1033 net726
*1034 net727
*1035 net728
*1036 net729
*1037 net73
*1038 net730
*1039 net731
*1040 net732
*1041 net733
*1042 net734
*1043 net735
*1044 net736
*1045 net737
*1046 net738
*1047 net739
*1048 net74
*1049 net740
*1050 net741
*1051 net742
*1052 net743
*1053 net744
*1054 net745
*1055 net746
*1056 net747
*1057 net748
*1058 net749
*1059 net75
*1060 net750
*1061 net751
*1062 net752
*1063 net753
*1064 net754
*1065 net755
*1066 net756
*1067 net757
*1068 net758
*1069 net759
*1070 net76
*1071 net760
*1072 net761
*1073 net762
*1074 net763
*1075 net764
*1076 net765
*1077 net766
*1078 net767
*1079 net768
*1080 net769
*1081 net77
*1082 net770
*1083 net771
*1084 net772
*1085 net773
*1086 net774
*1087 net775
*1088 net776
*1089 net777
*1090 net778
*1091 net779
*1092 net78
*1093 net780
*1094 net781
*1095 net782
*1096 net783
*1097 net784
*1098 net785
*1099 net786
*1100 net787
*1101 net788
*1102 net789
*1103 net79
*1104 net790
*1105 net791
*1106 net792
*1107 net793
*1108 net794
*1109 net795
*1110 net796
*1111 net797
*1112 net798
*1113 net799
*1114 net8
*1115 net80
*1116 net800
*1117 net801
*1118 net802
*1119 net803
*1120 net804
*1121 net805
*1122 net806
*1123 net807
*1124 net808
*1125 net809
*1126 net81
*1127 net810
*1128 net811
*1129 net812
*1130 net813
*1131 net814
*1132 net815
*1133 net816
*1134 net817
*1135 net818
*1136 net819
*1137 net82
*1138 net820
*1139 net821
*1140 net822
*1141 net823
*1142 net824
*1143 net825
*1144 net826
*1145 net827
*1146 net828
*1147 net829
*1148 net83
*1149 net830
*1150 net831
*1151 net832
*1152 net833
*1153 net834
*1154 net835
*1155 net836
*1156 net837
*1157 net838
*1158 net839
*1159 net84
*1160 net840
*1161 net841
*1162 net842
*1163 net843
*1164 net844
*1165 net845
*1166 net846
*1167 net847
*1168 net848
*1169 net849
*1170 net85
*1171 net850
*1172 net851
*1173 net852
*1174 net853
*1175 net854
*1176 net855
*1177 net856
*1178 net857
*1179 net858
*1180 net859
*1181 net86
*1182 net860
*1183 net861
*1184 net862
*1185 net863
*1186 net864
*1187 net865
*1188 net866
*1189 net867
*1190 net868
*1191 net869
*1192 net87
*1193 net870
*1194 net871
*1195 net872
*1196 net873
*1197 net874
*1198 net875
*1199 net876
*1200 net877
*1201 net878
*1202 net879
*1203 net88
*1204 net880
*1205 net881
*1206 net882
*1207 net883
*1208 net884
*1209 net885
*1210 net886
*1211 net887
*1212 net888
*1213 net889
*1214 net89
*1215 net890
*1216 net891
*1217 net892
*1218 net893
*1219 net894
*1220 net895
*1221 net896
*1222 net897
*1223 net898
*1224 net899
*1225 net9
*1226 net90
*1227 net900
*1228 net901
*1229 net902
*1230 net903
*1231 net904
*1232 net905
*1233 net906
*1234 net907
*1235 net908
*1236 net909
*1237 net91
*1238 net910
*1239 net911
*1240 net912
*1241 net913
*1242 net914
*1243 net915
*1244 net916
*1245 net917
*1246 net918
*1247 net919
*1248 net92
*1249 net920
*1250 net921
*1251 net922
*1252 net923
*1253 net924
*1254 net925
*1255 net926
*1256 net927
*1257 net928
*1258 net929
*1259 net93
*1260 net930
*1261 net931
*1262 net932
*1263 net933
*1264 net934
*1265 net935
*1266 net936
*1267 net937
*1268 net938
*1269 net939
*1270 net94
*1271 net940
*1272 net941
*1273 net942
*1274 net943
*1275 net944
*1276 net945
*1277 net946
*1278 net947
*1279 net948
*1280 net949
*1281 net95
*1282 net950
*1283 net951
*1284 net952
*1285 net953
*1286 net954
*1287 net955
*1288 net956
*1289 net957
*1290 net958
*1291 net959
*1292 net96
*1293 net960
*1294 net961
*1295 net962
*1296 net963
*1297 net964
*1298 net965
*1299 net966
*1300 net967
*1301 net968
*1302 net969
*1303 net97
*1304 net970
*1305 net971
*1306 net972
*1307 net973
*1308 net974
*1309 net975
*1310 net976
*1311 net977
*1312 net978
*1313 net979
*1314 net98
*1315 net980
*1316 net981
*1317 net982
*1318 net983
*1319 net984
*1320 net985
*1321 net986
*1322 net987
*1323 net988
*1324 net989
*1325 net99
*1326 net990
*1327 net991
*1328 net992
*1329 net993
*1330 net994
*1331 net995
*1332 net996
*1333 net997
*1334 net998
*1335 net999
*1336 ANTENNA_c100_A1
*1337 ANTENNA_c100_X
*1338 ANTENNA_c101_A0
*1339 ANTENNA_c101_A3
*1340 ANTENNA_c101_S1
*1341 ANTENNA_c103_A2
*1342 ANTENNA_c103_A3
*1343 ANTENNA_c104_B
*1344 ANTENNA_c105_A2
*1345 ANTENNA_c105_B1
*1346 ANTENNA_c109_A1
*1347 ANTENNA_c110_A
*1348 ANTENNA_c110_B
*1349 ANTENNA_c111_A
*1350 ANTENNA_c112_A2
*1351 ANTENNA_c112_B1_N
*1352 ANTENNA_c113_B
*1353 ANTENNA_c120_B1_N
*1354 ANTENNA_c121_A
*1355 ANTENNA_c121_B
*1356 ANTENNA_c129_X
*1357 ANTENNA_c130_CLK
*1358 ANTENNA_c130_D
*1359 ANTENNA_c130_RESET_B
*1360 ANTENNA_c130_SCD
*1361 ANTENNA_c131_A1
*1362 ANTENNA_c131_S0
*1363 ANTENNA_c132_A
*1364 ANTENNA_c132_Y
*1365 ANTENNA_c133_B
*1366 ANTENNA_c135_B
*1367 ANTENNA_c135_Y
*1368 ANTENNA_c138_Y
*1369 ANTENNA_c139_A
*1370 ANTENNA_c139_B
*1371 ANTENNA_c141_B
*1372 ANTENNA_c142_B1_N
*1373 ANTENNA_c142_X
*1374 ANTENNA_c143_B
*1375 ANTENNA_c144_Y
*1376 ANTENNA_c145_A
*1377 ANTENNA_c145_Y
*1378 ANTENNA_c146_A1
*1379 ANTENNA_c146_B1_N
*1380 ANTENNA_c147_A0
*1381 ANTENNA_c147_A1
*1382 ANTENNA_c147_S1
*1383 ANTENNA_c148_A2
*1384 ANTENNA_c148_B1
*1385 ANTENNA_c149_A2
*1386 ANTENNA_c149_A4
*1387 ANTENNA_c150_A2
*1388 ANTENNA_c151_A1
*1389 ANTENNA_c151_X
*1390 ANTENNA_c153_A3
*1391 ANTENNA_c153_S1
*1392 ANTENNA_c153_X
*1393 ANTENNA_c154_B
*1394 ANTENNA_c155_Y
*1395 ANTENNA_c156_B
*1396 ANTENNA_c156_Y
*1397 ANTENNA_c157_A2
*1398 ANTENNA_c157_A3
*1399 ANTENNA_c157_B1
*1400 ANTENNA_c158_A2
*1401 ANTENNA_c158_B1_N
*1402 ANTENNA_c158_X
*1403 ANTENNA_c159_A2
*1404 ANTENNA_c159_B1_N
*1405 ANTENNA_c160_B1
*1406 ANTENNA_c160_X
*1407 ANTENNA_c161_A2
*1408 ANTENNA_c161_B1_N
*1409 ANTENNA_c161_X
*1410 ANTENNA_c162_A
*1411 ANTENNA_c162_B
*1412 ANTENNA_c162_Y
*1413 ANTENNA_c163_A2
*1414 ANTENNA_c163_B1_N
*1415 ANTENNA_c164_B1_N
*1416 ANTENNA_c164_X
*1417 ANTENNA_c165_A1
*1418 ANTENNA_c165_B1_N
*1419 ANTENNA_c165_X
*1420 ANTENNA_c166_A1
*1421 ANTENNA_c166_A2
*1422 ANTENNA_c166_B1_N
*1423 ANTENNA_c167_A2
*1424 ANTENNA_c167_B1_N
*1425 ANTENNA_c168_A1
*1426 ANTENNA_c168_B1_N
*1427 ANTENNA_c169_A2
*1428 ANTENNA_c169_A3
*1429 ANTENNA_c169_S0
*1430 ANTENNA_c169_S1
*1431 ANTENNA_c170_A3
*1432 ANTENNA_c171_A
*1433 ANTENNA_c172_A2
*1434 ANTENNA_c173_A
*1435 ANTENNA_c174_S1
*1436 ANTENNA_c175_S0
*1437 ANTENNA_c175_S1
*1438 ANTENNA_c175_X
*1439 ANTENNA_c176_A1
*1440 ANTENNA_c176_A2
*1441 ANTENNA_c176_B1_N
*1442 ANTENNA_c177_B
*1443 ANTENNA_c178_B
*1444 ANTENNA_c179_B
*1445 ANTENNA_c180_A1
*1446 ANTENNA_c180_A2
*1447 ANTENNA_c180_B1_N
*1448 ANTENNA_c181_B1_N
*1449 ANTENNA_c182_X
*1450 ANTENNA_c183_A1
*1451 ANTENNA_c183_A2
*1452 ANTENNA_c183_B1
*1453 ANTENNA_c184_B
*1454 ANTENNA_c185_A2
*1455 ANTENNA_c185_B1_N
*1456 ANTENNA_c185_X
*1457 ANTENNA_c187_A2
*1458 ANTENNA_c187_B1_N
*1459 ANTENNA_c188_A3
*1460 ANTENNA_c189_A2
*1461 ANTENNA_c189_A3
*1462 ANTENNA_c189_S0
*1463 ANTENNA_c189_X
*1464 ANTENNA_c190_A1
*1465 ANTENNA_c190_A3
*1466 ANTENNA_c191_CLK
*1467 ANTENNA_c191_RESET_B
*1468 ANTENNA_c191_SCD
*1469 ANTENNA_c192_A1
*1470 ANTENNA_c192_A3
*1471 ANTENNA_c192_A4
*1472 ANTENNA_c192_X
*1473 ANTENNA_c193_CLK_N
*1474 ANTENNA_c193_Q
*1475 ANTENNA_c194_A3
*1476 ANTENNA_c194_X
*1477 ANTENNA_c195_A1
*1478 ANTENNA_c195_A2
*1479 ANTENNA_c195_S0
*1480 ANTENNA_c197_A4
*1481 ANTENNA_c197_X
*1482 ANTENNA_c199_A1
*1483 ANTENNA_c199_A2
*1484 ANTENNA_c199_S0
*1485 ANTENNA_c200_B1_N
*1486 ANTENNA_c201_B
*1487 ANTENNA_c201_Y
*1488 ANTENNA_c202_A2
*1489 ANTENNA_c202_B1_N
*1490 ANTENNA_c202_X
*1491 ANTENNA_c203_A1
*1492 ANTENNA_c203_B1_N
*1493 ANTENNA_c204_A2
*1494 ANTENNA_c204_B1_N
*1495 ANTENNA_c205_A3
*1496 ANTENNA_c205_A4
*1497 ANTENNA_c207_A
*1498 ANTENNA_c208_CLK_N
*1499 ANTENNA_c208_Q_N
*1500 ANTENNA_c208_RESET_B
*1501 ANTENNA_c208_SCD
*1502 ANTENNA_c208_SET_B
*1503 ANTENNA_c209_A1
*1504 ANTENNA_c209_A2
*1505 ANTENNA_c209_B1
*1506 ANTENNA_c209_X
*1507 ANTENNA_c210_A0
*1508 ANTENNA_c210_A1
*1509 ANTENNA_c210_A3
*1510 ANTENNA_c210_S0
*1511 ANTENNA_c211_X
*1512 ANTENNA_c212_CLK
*1513 ANTENNA_c212_Q
*1514 ANTENNA_c212_RESET_B
*1515 ANTENNA_c212_SCD
*1516 ANTENNA_c213_A2
*1517 ANTENNA_c213_A3
*1518 ANTENNA_c214_A2
*1519 ANTENNA_c214_A3
*1520 ANTENNA_c214_A4
*1521 ANTENNA_c214_B1
*1522 ANTENNA_c215_A1
*1523 ANTENNA_c215_A2
*1524 ANTENNA_c215_A3
*1525 ANTENNA_c216_CLK_N
*1526 ANTENNA_c216_D
*1527 ANTENNA_c216_Q
*1528 ANTENNA_c216_SCE
*1529 ANTENNA_c216_SET_B
*1530 ANTENNA_c217_A1
*1531 ANTENNA_c217_A2
*1532 ANTENNA_c217_A3
*1533 ANTENNA_c218_A2
*1534 ANTENNA_c218_A3
*1535 ANTENNA_c218_S1
*1536 ANTENNA_c219_S0
*1537 ANTENNA_c220_A
*1538 ANTENNA_c220_X
*1539 ANTENNA_c221_A
*1540 ANTENNA_c221_B
*1541 ANTENNA_c222_B
*1542 ANTENNA_c223_B
*1543 ANTENNA_c223_Y
*1544 ANTENNA_c224_A1
*1545 ANTENNA_c224_B1_N
*1546 ANTENNA_c226_A1
*1547 ANTENNA_c226_A2
*1548 ANTENNA_c226_B1
*1549 ANTENNA_c227_B
*1550 ANTENNA_c227_Y
*1551 ANTENNA_c228_S1
*1552 ANTENNA_c229_A1
*1553 ANTENNA_c229_A2
*1554 ANTENNA_c230_B
*1555 ANTENNA_c230_Y
*1556 ANTENNA_c231_A
*1557 ANTENNA_c232_A
*1558 ANTENNA_c233_A3
*1559 ANTENNA_c233_S0
*1560 ANTENNA_c233_S1
*1561 ANTENNA_c234_A2
*1562 ANTENNA_c235_A
*1563 ANTENNA_c235_X
*1564 ANTENNA_c236_A3
*1565 ANTENNA_c236_S0
*1566 ANTENNA_c237_S0
*1567 ANTENNA_c238_B
*1568 ANTENNA_c239_A0
*1569 ANTENNA_c239_A1
*1570 ANTENNA_c239_A3
*1571 ANTENNA_c240_CLK
*1572 ANTENNA_c241_A1
*1573 ANTENNA_c241_S0
*1574 ANTENNA_c242_CLK
*1575 ANTENNA_c242_D
*1576 ANTENNA_c242_SCD
*1577 ANTENNA_c242_SCE
*1578 ANTENNA_c243_A1
*1579 ANTENNA_c243_A2
*1580 ANTENNA_c243_B1_N
*1581 ANTENNA_c244_A1
*1582 ANTENNA_c245_A3
*1583 ANTENNA_c245_A4
*1584 ANTENNA_c246_A1
*1585 ANTENNA_c246_A2
*1586 ANTENNA_c246_B1_N
*1587 ANTENNA_c248_A2
*1588 ANTENNA_c248_B1_N
*1589 ANTENNA_c250_A1
*1590 ANTENNA_c250_A2
*1591 ANTENNA_c250_B1_N
*1592 ANTENNA_c252_A1
*1593 ANTENNA_c253_A2
*1594 ANTENNA_c253_A3
*1595 ANTENNA_c255_A1
*1596 ANTENNA_c256_A2
*1597 ANTENNA_c257_A2
*1598 ANTENNA_c257_B1_N
*1599 ANTENNA_c259_A1
*1600 ANTENNA_c261_A3
*1601 ANTENNA_c262_A3
*1602 ANTENNA_c264_A
*1603 ANTENNA_c266_A
*1604 ANTENNA_c267_Y
*1605 ANTENNA_c269_A
*1606 ANTENNA_c271_B
*1607 ANTENNA_c272_A
*1608 ANTENNA_c273_A1
*1609 ANTENNA_c274_B1_N
*1610 ANTENNA_c274_X
*1611 ANTENNA_c275_A2
*1612 ANTENNA_c276_S1
*1613 ANTENNA_c277_X
*1614 ANTENNA_c279_A2
*1615 ANTENNA_c280_X
*1616 ANTENNA_c281_A2
*1617 ANTENNA_c281_X
*1618 ANTENNA_c282_B1_N
*1619 ANTENNA_c282_X
*1620 ANTENNA_c283_A1
*1621 ANTENNA_c283_B1
*1622 ANTENNA_c283_X
*1623 ANTENNA_c284_A0
*1624 ANTENNA_c284_A1
*1625 ANTENNA_c284_A3
*1626 ANTENNA_c285_A2
*1627 ANTENNA_c285_A3
*1628 ANTENNA_c285_S0
*1629 ANTENNA_c285_S1
*1630 ANTENNA_c286_A2
*1631 ANTENNA_c287_B1_N
*1632 ANTENNA_c288_A2
*1633 ANTENNA_c288_B1_N
*1634 ANTENNA_c288_X
*1635 ANTENNA_c289_A1
*1636 ANTENNA_c289_A2
*1637 ANTENNA_c289_X
*1638 ANTENNA_c290_A1
*1639 ANTENNA_c290_B1_N
*1640 ANTENNA_c291_A0
*1641 ANTENNA_c291_A1
*1642 ANTENNA_c291_A3
*1643 ANTENNA_c291_S0
*1644 ANTENNA_c291_S1
*1645 ANTENNA_c292_A2
*1646 ANTENNA_c292_B1_N
*1647 ANTENNA_c293_A2
*1648 ANTENNA_c293_S0
*1649 ANTENNA_c293_S1
*1650 ANTENNA_c294_A2
*1651 ANTENNA_c295_A2
*1652 ANTENNA_c295_B1_N
*1653 ANTENNA_c296_B1
*1654 ANTENNA_c297_B1_N
*1655 ANTENNA_c299_A2
*1656 ANTENNA_c299_B1
*1657 ANTENNA_c300_A3
*1658 ANTENNA_c300_S0
*1659 ANTENNA_c301_B1_N
*1660 ANTENNA_c301_X
*1661 ANTENNA_c302_A3
*1662 ANTENNA_c302_S1
*1663 ANTENNA_c303_A1
*1664 ANTENNA_c304_X
*1665 ANTENNA_c305_A0
*1666 ANTENNA_c305_A1
*1667 ANTENNA_c305_S0
*1668 ANTENNA_c306_A2
*1669 ANTENNA_c306_A3
*1670 ANTENNA_c306_X
*1671 ANTENNA_c307_S0
*1672 ANTENNA_c308_A
*1673 ANTENNA_c309_B
*1674 ANTENNA_c309_Y
*1675 ANTENNA_c310_A2
*1676 ANTENNA_c310_B1_N
*1677 ANTENNA_c311_Y
*1678 ANTENNA_c312_A
*1679 ANTENNA_c313_B
*1680 ANTENNA_c313_Y
*1681 ANTENNA_c314_A2
*1682 ANTENNA_c314_A3
*1683 ANTENNA_c314_A4
*1684 ANTENNA_c314_B1
*1685 ANTENNA_c315_CLK
*1686 ANTENNA_c315_RESET_B
*1687 ANTENNA_c315_SCD
*1688 ANTENNA_c315_SCE
*1689 ANTENNA_c316_A3
*1690 ANTENNA_c316_A4
*1691 ANTENNA_c316_B1
*1692 ANTENNA_c317_A2
*1693 ANTENNA_c317_X
*1694 ANTENNA_c318_A0
*1695 ANTENNA_c318_A2
*1696 ANTENNA_c318_A3
*1697 ANTENNA_c318_S0
*1698 ANTENNA_c318_X
*1699 ANTENNA_c320_A1
*1700 ANTENNA_c320_A2
*1701 ANTENNA_c320_A3
*1702 ANTENNA_c320_S0
*1703 ANTENNA_c320_S1
*1704 ANTENNA_c322_A2
*1705 ANTENNA_c322_B1_N
*1706 ANTENNA_c323_B1_N
*1707 ANTENNA_c323_X
*1708 ANTENNA_c324_A1
*1709 ANTENNA_c324_A3
*1710 ANTENNA_c324_X
*1711 ANTENNA_c325_A0
*1712 ANTENNA_c325_A1
*1713 ANTENNA_c325_A3
*1714 ANTENNA_c326_A2
*1715 ANTENNA_c327_A2
*1716 ANTENNA_c327_A3
*1717 ANTENNA_c328_A1
*1718 ANTENNA_c328_A3
*1719 ANTENNA_c329_A0
*1720 ANTENNA_c329_A2
*1721 ANTENNA_c330_B
*1722 ANTENNA_c331_A1
*1723 ANTENNA_c331_A2
*1724 ANTENNA_c332_A1
*1725 ANTENNA_c332_A2
*1726 ANTENNA_c332_A3
*1727 ANTENNA_c332_A4
*1728 ANTENNA_c332_B1
*1729 ANTENNA_c333_A2
*1730 ANTENNA_c333_B1_N
*1731 ANTENNA_c334_A1
*1732 ANTENNA_c334_X
*1733 ANTENNA_c336_A1
*1734 ANTENNA_c336_A2
*1735 ANTENNA_c337_A1
*1736 ANTENNA_c338_A2
*1737 ANTENNA_c338_A3
*1738 ANTENNA_c338_A4
*1739 ANTENNA_c338_B1
*1740 ANTENNA_c339_A2
*1741 ANTENNA_c339_A3
*1742 ANTENNA_c340_X
*1743 ANTENNA_c341_A0
*1744 ANTENNA_c341_A3
*1745 ANTENNA_c341_S0
*1746 ANTENNA_c342_A2
*1747 ANTENNA_c343_Q
*1748 ANTENNA_c344_A1
*1749 ANTENNA_c344_A2
*1750 ANTENNA_c344_A4
*1751 ANTENNA_c345_A0
*1752 ANTENNA_c345_A2
*1753 ANTENNA_c346_X
*1754 ANTENNA_c347_A2
*1755 ANTENNA_c347_B1
*1756 ANTENNA_c348_A1
*1757 ANTENNA_c348_A2
*1758 ANTENNA_c348_B1
*1759 ANTENNA_c348_X
*1760 ANTENNA_c349_A2
*1761 ANTENNA_c349_B1
*1762 ANTENNA_c351_S0
*1763 ANTENNA_c351_S1
*1764 ANTENNA_c354_X
*1765 ANTENNA_c356_A
*1766 ANTENNA_c356_B
*1767 ANTENNA_c357_B
*1768 ANTENNA_c359_A
*1769 ANTENNA_c360_B1_N
*1770 ANTENNA_c361_B
*1771 ANTENNA_c362_X
*1772 ANTENNA_c364_A0
*1773 ANTENNA_c364_A1
*1774 ANTENNA_c364_A2
*1775 ANTENNA_c365_A1
*1776 ANTENNA_c367_A1
*1777 ANTENNA_c367_X
*1778 ANTENNA_c368_B
*1779 ANTENNA_c370_A1
*1780 ANTENNA_c370_A3
*1781 ANTENNA_c371_B1_N
*1782 ANTENNA_c371_X
*1783 ANTENNA_c372_A1
*1784 ANTENNA_c372_A2
*1785 ANTENNA_c372_A3
*1786 ANTENNA_c373_A2
*1787 ANTENNA_c373_A3
*1788 ANTENNA_c392_A1
*1789 ANTENNA_c392_A2
*1790 ANTENNA_c392_S0
*1791 ANTENNA_c393_A1
*1792 ANTENNA_c393_A2
*1793 ANTENNA_c393_A3
*1794 ANTENNA_c393_S0
*1795 ANTENNA_c394_A0
*1796 ANTENNA_c394_A3
*1797 ANTENNA_c396_A
*1798 ANTENNA_c396_Y
*1799 ANTENNA_c397_A2
*1800 ANTENNA_c397_B1_N
*1801 ANTENNA_c397_X
*1802 ANTENNA_c398_A1
*1803 ANTENNA_c398_B1_N
*1804 ANTENNA_c399_Y
*1805 ANTENNA_c400_A2
*1806 ANTENNA_c401_X
*1807 ANTENNA_c402_A2
*1808 ANTENNA_c403_A2
*1809 ANTENNA_c403_B1_N
*1810 ANTENNA_c404_A
*1811 ANTENNA_c404_B
*1812 ANTENNA_c405_B
*1813 ANTENNA_c405_Y
*1814 ANTENNA_c408_X
*1815 ANTENNA_c409_B1_N
*1816 ANTENNA_c410_A2
*1817 ANTENNA_c410_B1_N
*1818 ANTENNA_c411_X
*1819 ANTENNA_c412_A1
*1820 ANTENNA_c412_A2
*1821 ANTENNA_c412_A4
*1822 ANTENNA_c412_B1
*1823 ANTENNA_c413_B1_N
*1824 ANTENNA_c414_A1
*1825 ANTENNA_c414_A3
*1826 ANTENNA_c414_B1
*1827 ANTENNA_c415_CLK
*1828 ANTENNA_c415_Q_N
*1829 ANTENNA_c417_A1
*1830 ANTENNA_c418_X
*1831 ANTENNA_c421_B1_N
*1832 ANTENNA_c421_X
*1833 ANTENNA_c422_A
*1834 ANTENNA_c422_B
*1835 ANTENNA_c427_B
*1836 ANTENNA_c428_A2
*1837 ANTENNA_c430_A1
*1838 ANTENNA_c431_A3
*1839 ANTENNA_c431_B1
*1840 ANTENNA_c432_S0
*1841 ANTENNA_c432_S1
*1842 ANTENNA_c433_A2
*1843 ANTENNA_c433_A3
*1844 ANTENNA_c433_S1
*1845 ANTENNA_c436_A3
*1846 ANTENNA_c436_B1
*1847 ANTENNA_c437_A1
*1848 ANTENNA_c437_S1