*SPEF "ieee 1481-1999"
*DESIGN "netlist_1"
*DATE "03:21:28 Thursday August 08, 2024"
*VENDOR "The OpenROAD Project"
*PROGRAM "OpenROAD"
*VERSION "d423155d69de7f683a23f6916ead418a615ad4ad"
*DESIGN_FLOW "NAME_SCOPE LOCAL" "PIN_CAP NONE"
*DIVIDER /
*DELIMITER :
*BUS_DELIMITER []
*T_UNIT 1 NS
*C_UNIT 1 PF
*R_UNIT 1 OHM
*L_UNIT 1 HENRY

*NAME_MAP
*3 clk
*4 in0
*5 in1
*6 in10
*7 in11
*8 in12
*9 in13
*10 in14
*11 in15
*12 in16
*13 in17
*14 in18
*15 in19
*16 in2
*17 in20
*18 in21
*19 in22
*20 in23
*21 in24
*22 in25
*23 in26
*24 in27
*25 in28
*26 in29
*27 in3
*28 in30
*29 in31
*30 in32
*31 in33
*32 in34
*33 in35
*34 in36
*35 in37
*36 in38
*37 in39
*38 in4
*39 in40
*40 in41
*41 in42
*42 in43
*43 in44
*44 in45
*45 in46
*46 in47
*47 in48
*48 in49
*49 in5
*50 in50
*51 in51
*52 in52
*53 in53
*54 in54
*55 in55
*56 in56
*57 in57
*58 in58
*59 in59
*60 in6
*61 in60
*62 in61
*63 in7
*64 in8
*65 in9
*66 out0
*67 out1
*68 out10
*69 out11
*70 out12
*71 out13
*72 out14
*73 out15
*74 out16
*75 out17
*76 out18
*77 out19
*78 out2
*79 out20
*80 out21
*81 out22
*82 out23
*83 out24
*84 out25
*85 out26
*86 out27
*87 out28
*88 out29
*89 out3
*90 out30
*91 out31
*92 out32
*93 out33
*94 out34
*95 out35
*96 out36
*97 out37
*98 out38
*99 out39
*100 out4
*101 out40
*102 out41
*103 out42
*104 out43
*105 out44
*106 out45
*107 out46
*108 out47
*109 out48
*110 out49
*111 out5
*112 out50
*113 out51
*114 out52
*115 out53
*116 out54
*117 out55
*118 out56
*119 out57
*120 out58
*121 out59
*122 out6
*123 out60
*124 out61
*125 out7
*126 out8
*127 out9
*128 rst
*129 clknet_0_clk
*130 clknet_0_net171
*131 clknet_0_net182
*132 clknet_0_net243
*133 clknet_0_net257
*134 clknet_0_net262
*135 clknet_0_net265
*136 clknet_0_net269
*137 clknet_0_net361
*138 clknet_0_net362
*139 clknet_0_net364
*140 clknet_0_net367
*141 clknet_0_net371
*142 clknet_0_net372
*143 clknet_0_net377
*144 clknet_0_net394
*145 clknet_0_net406
*146 clknet_0_net407
*147 clknet_0_net408
*148 clknet_0_net410
*149 clknet_0_net411
*150 clknet_0_net412
*151 clknet_0_net416
*152 clknet_0_net419
*153 clknet_0_net421
*154 clknet_0_net422
*155 clknet_0_net423
*156 clknet_0_net425
*157 clknet_0_net428
*158 clknet_0_net431
*159 clknet_0_net433
*160 clknet_0_net435
*161 clknet_0_net436
*162 clknet_0_net437
*163 clknet_0_net449
*164 clknet_0_net457
*165 clknet_0_net459
*166 clknet_0_net474
*167 clknet_0_net479
*168 clknet_0_net486
*169 clknet_0_net489
*170 clknet_0_net511
*171 clknet_0_net513
*172 clknet_0_net516
*173 clknet_0_net517
*174 clknet_0_net518
*175 clknet_0_net519
*176 clknet_0_net520
*177 clknet_0_net521
*178 clknet_0_net526
*179 clknet_0_net528
*180 clknet_0_net529
*181 clknet_0_net531
*182 clknet_0_net532
*183 clknet_0_net535
*184 clknet_0_net537
*185 clknet_0_net538
*186 clknet_0_net540
*187 clknet_0_net545
*188 clknet_0_net548
*189 clknet_0_net550
*190 clknet_0_net551
*191 clknet_0_net553
*192 clknet_0_net554
*193 clknet_0_net556
*194 clknet_0_net591
*195 clknet_0_net597
*196 clknet_0_net620
*197 clknet_0_net622
*198 clknet_0_net692
*199 clknet_0_net693
*200 clknet_0_net706
*201 clknet_0_net724
*202 clknet_0_net741
*203 clknet_0_net742
*204 clknet_0_net760
*205 clknet_0_net761
*206 clknet_0_net762
*207 clknet_0_net780
*208 clknet_0_net781
*209 clknet_0_net782
*210 clknet_0_net854
*211 clknet_0_net860
*212 clknet_0_net861
*213 clknet_0_net862
*214 clknet_0_net873
*215 clknet_0_net874
*216 clknet_0_net892
*217 clknet_0_net894
*218 clknet_0_net898
*219 clknet_0_net899
*220 clknet_1_0__leaf_net171
*221 clknet_1_0__leaf_net182
*222 clknet_1_0__leaf_net243
*223 clknet_1_0__leaf_net257
*224 clknet_1_0__leaf_net262
*225 clknet_1_0__leaf_net265
*226 clknet_1_0__leaf_net269
*227 clknet_1_0__leaf_net361
*228 clknet_1_0__leaf_net362
*229 clknet_1_0__leaf_net364
*230 clknet_1_0__leaf_net367
*231 clknet_1_0__leaf_net371
*232 clknet_1_0__leaf_net372
*233 clknet_1_0__leaf_net377
*234 clknet_1_0__leaf_net394
*235 clknet_1_0__leaf_net406
*236 clknet_1_0__leaf_net407
*237 clknet_1_0__leaf_net408
*238 clknet_1_0__leaf_net410
*239 clknet_1_0__leaf_net411
*240 clknet_1_0__leaf_net412
*241 clknet_1_0__leaf_net416
*242 clknet_1_0__leaf_net419
*243 clknet_1_0__leaf_net421
*244 clknet_1_0__leaf_net422
*245 clknet_1_0__leaf_net423
*246 clknet_1_0__leaf_net425
*247 clknet_1_0__leaf_net428
*248 clknet_1_0__leaf_net431
*249 clknet_1_0__leaf_net433
*250 clknet_1_0__leaf_net435
*251 clknet_1_0__leaf_net436
*252 clknet_1_0__leaf_net437
*253 clknet_1_0__leaf_net449
*254 clknet_1_0__leaf_net457
*255 clknet_1_0__leaf_net459
*256 clknet_1_0__leaf_net474
*257 clknet_1_0__leaf_net479
*258 clknet_1_0__leaf_net486
*259 clknet_1_0__leaf_net489
*260 clknet_1_0__leaf_net511
*261 clknet_1_0__leaf_net513
*262 clknet_1_0__leaf_net516
*263 clknet_1_0__leaf_net517
*264 clknet_1_0__leaf_net518
*265 clknet_1_0__leaf_net519
*266 clknet_1_0__leaf_net520
*267 clknet_1_0__leaf_net521
*268 clknet_1_0__leaf_net526
*269 clknet_1_0__leaf_net528
*270 clknet_1_0__leaf_net529
*271 clknet_1_0__leaf_net531
*272 clknet_1_0__leaf_net532
*273 clknet_1_0__leaf_net535
*274 clknet_1_0__leaf_net537
*275 clknet_1_0__leaf_net538
*276 clknet_1_0__leaf_net540
*277 clknet_1_0__leaf_net545
*278 clknet_1_0__leaf_net548
*279 clknet_1_0__leaf_net550
*280 clknet_1_0__leaf_net551
*281 clknet_1_0__leaf_net553
*282 clknet_1_0__leaf_net554
*283 clknet_1_0__leaf_net556
*284 clknet_1_0__leaf_net591
*285 clknet_1_0__leaf_net597
*286 clknet_1_0__leaf_net620
*287 clknet_1_0__leaf_net622
*288 clknet_1_0__leaf_net692
*289 clknet_1_0__leaf_net693
*290 clknet_1_0__leaf_net706
*291 clknet_1_0__leaf_net724
*292 clknet_1_0__leaf_net741
*293 clknet_1_0__leaf_net742
*294 clknet_1_0__leaf_net760
*295 clknet_1_0__leaf_net761
*296 clknet_1_0__leaf_net762
*297 clknet_1_0__leaf_net780
*298 clknet_1_0__leaf_net781
*299 clknet_1_0__leaf_net782
*300 clknet_1_0__leaf_net854
*301 clknet_1_0__leaf_net860
*302 clknet_1_0__leaf_net861
*303 clknet_1_0__leaf_net862
*304 clknet_1_0__leaf_net873
*305 clknet_1_0__leaf_net874
*306 clknet_1_0__leaf_net892
*307 clknet_1_0__leaf_net894
*308 clknet_1_0__leaf_net898
*309 clknet_1_0__leaf_net899
*310 clknet_1_1__leaf_net171
*311 clknet_1_1__leaf_net182
*312 clknet_1_1__leaf_net243
*313 clknet_1_1__leaf_net257
*314 clknet_1_1__leaf_net262
*315 clknet_1_1__leaf_net265
*316 clknet_1_1__leaf_net269
*317 clknet_1_1__leaf_net361
*318 clknet_1_1__leaf_net362
*319 clknet_1_1__leaf_net364
*320 clknet_1_1__leaf_net367
*321 clknet_1_1__leaf_net371
*322 clknet_1_1__leaf_net372
*323 clknet_1_1__leaf_net377
*324 clknet_1_1__leaf_net394
*325 clknet_1_1__leaf_net406
*326 clknet_1_1__leaf_net407
*327 clknet_1_1__leaf_net408
*328 clknet_1_1__leaf_net410
*329 clknet_1_1__leaf_net411
*330 clknet_1_1__leaf_net412
*331 clknet_1_1__leaf_net416
*332 clknet_1_1__leaf_net419
*333 clknet_1_1__leaf_net421
*334 clknet_1_1__leaf_net422
*335 clknet_1_1__leaf_net423
*336 clknet_1_1__leaf_net425
*337 clknet_1_1__leaf_net428
*338 clknet_1_1__leaf_net431
*339 clknet_1_1__leaf_net433
*340 clknet_1_1__leaf_net435
*341 clknet_1_1__leaf_net436
*342 clknet_1_1__leaf_net437
*343 clknet_1_1__leaf_net449
*344 clknet_1_1__leaf_net457
*345 clknet_1_1__leaf_net459
*346 clknet_1_1__leaf_net474
*347 clknet_1_1__leaf_net479
*348 clknet_1_1__leaf_net486
*349 clknet_1_1__leaf_net489
*350 clknet_1_1__leaf_net511
*351 clknet_1_1__leaf_net513
*352 clknet_1_1__leaf_net516
*353 clknet_1_1__leaf_net517
*354 clknet_1_1__leaf_net518
*355 clknet_1_1__leaf_net519
*356 clknet_1_1__leaf_net520
*357 clknet_1_1__leaf_net521
*358 clknet_1_1__leaf_net526
*359 clknet_1_1__leaf_net528
*360 clknet_1_1__leaf_net529
*361 clknet_1_1__leaf_net531
*362 clknet_1_1__leaf_net532
*363 clknet_1_1__leaf_net535
*364 clknet_1_1__leaf_net537
*365 clknet_1_1__leaf_net538
*366 clknet_1_1__leaf_net540
*367 clknet_1_1__leaf_net545
*368 clknet_1_1__leaf_net548
*369 clknet_1_1__leaf_net550
*370 clknet_1_1__leaf_net551
*371 clknet_1_1__leaf_net553
*372 clknet_1_1__leaf_net554
*373 clknet_1_1__leaf_net556
*374 clknet_1_1__leaf_net591
*375 clknet_1_1__leaf_net597
*376 clknet_1_1__leaf_net620
*377 clknet_1_1__leaf_net622
*378 clknet_1_1__leaf_net692
*379 clknet_1_1__leaf_net693
*380 clknet_1_1__leaf_net706
*381 clknet_1_1__leaf_net724
*382 clknet_1_1__leaf_net741
*383 clknet_1_1__leaf_net742
*384 clknet_1_1__leaf_net760
*385 clknet_1_1__leaf_net761
*386 clknet_1_1__leaf_net762
*387 clknet_1_1__leaf_net780
*388 clknet_1_1__leaf_net781
*389 clknet_1_1__leaf_net782
*390 clknet_1_1__leaf_net854
*391 clknet_1_1__leaf_net860
*392 clknet_1_1__leaf_net861
*393 clknet_1_1__leaf_net862
*394 clknet_1_1__leaf_net873
*395 clknet_1_1__leaf_net874
*396 clknet_1_1__leaf_net892
*397 clknet_1_1__leaf_net894
*398 clknet_1_1__leaf_net898
*399 clknet_1_1__leaf_net899
*400 clknet_4_0_0_clk
*401 clknet_4_10_0_clk
*402 clknet_4_11_0_clk
*403 clknet_4_12_0_clk
*404 clknet_4_13_0_clk
*405 clknet_4_14_0_clk
*406 clknet_4_15_0_clk
*407 clknet_4_1_0_clk
*408 clknet_4_2_0_clk
*409 clknet_4_3_0_clk
*410 clknet_4_4_0_clk
*411 clknet_4_5_0_clk
*412 clknet_4_6_0_clk
*413 clknet_4_7_0_clk
*414 clknet_4_8_0_clk
*415 clknet_4_9_0_clk
*416 net0
*417 net1
*418 net10
*419 net100
*420 net101
*421 net102
*422 net103
*423 net104
*424 net105
*425 net106
*426 net107
*427 net108
*428 net109
*429 net11
*430 net110
*431 net111
*432 net112
*433 net113
*434 net114
*435 net115
*436 net116
*437 net117
*438 net118
*439 net119
*440 net12
*441 net120
*442 net121
*443 net122
*444 net123
*445 net124
*446 net125
*447 net126
*448 net127
*449 net128
*450 net129
*451 net13
*452 net130
*453 net131
*454 net132
*455 net133
*456 net134
*457 net135
*458 net136
*459 net137
*460 net138
*461 net139
*462 net14
*463 net140
*464 net141
*465 net142
*466 net143
*467 net144
*468 net145
*469 net146
*470 net147
*471 net148
*472 net149
*473 net15
*474 net150
*475 net151
*476 net152
*477 net153
*478 net154
*479 net155
*480 net156
*481 net157
*482 net158
*483 net159
*484 net16
*485 net160
*486 net161
*487 net162
*488 net163
*489 net164
*490 net165
*491 net166
*492 net167
*493 net168
*494 net169
*495 net17
*496 net170
*497 net171
*498 net172
*499 net173
*500 net174
*501 net175
*502 net176
*503 net177
*504 net178
*505 net179
*506 net18
*507 net180
*508 net181
*509 net182
*510 net183
*511 net184
*512 net185
*513 net186
*514 net187
*515 net188
*516 net189
*517 net19
*518 net190
*519 net191
*520 net192
*521 net193
*522 net194
*523 net195
*524 net196
*525 net197
*526 net198
*527 net199
*528 net2
*529 net20
*530 net200
*531 net201
*532 net202
*533 net203
*534 net204
*535 net205
*536 net206
*537 net207
*538 net208
*539 net209
*540 net21
*541 net210
*542 net211
*543 net212
*544 net213
*545 net214
*546 net215
*547 net216
*548 net217
*549 net218
*550 net219
*551 net22
*552 net220
*553 net221
*554 net222
*555 net223
*556 net224
*557 net225
*558 net226
*559 net227
*560 net228
*561 net229
*562 net23
*563 net230
*564 net231
*565 net232
*566 net233
*567 net234
*568 net235
*569 net236
*570 net237
*571 net238
*572 net239
*573 net24
*574 net240
*575 net241
*576 net242
*577 net243
*578 net244
*579 net245
*580 net246
*581 net247
*582 net248
*583 net249
*584 net25
*585 net250
*586 net251
*587 net252
*588 net253
*589 net254
*590 net255
*591 net256
*592 net257
*593 net258
*594 net259
*595 net26
*596 net260
*597 net261
*598 net262
*599 net263
*600 net264
*601 net265
*602 net266
*603 net267
*604 net268
*605 net269
*606 net27
*607 net270
*608 net271
*609 net272
*610 net273
*611 net274
*612 net275
*613 net276
*614 net277
*615 net278
*616 net279
*617 net28
*618 net280
*619 net281
*620 net282
*621 net283
*622 net284
*623 net285
*624 net286
*625 net287
*626 net288
*627 net289
*628 net29
*629 net290
*630 net291
*631 net292
*632 net293
*633 net294
*634 net295
*635 net296
*636 net297
*637 net298
*638 net299
*639 net3
*640 net30
*641 net300
*642 net301
*643 net302
*644 net303
*645 net304
*646 net305
*647 net306
*648 net307
*649 net308
*650 net309
*651 net31
*652 net310
*653 net311
*654 net312
*655 net313
*656 net314
*657 net315
*658 net316
*659 net317
*660 net318
*661 net319
*662 net32
*663 net320
*664 net321
*665 net322
*666 net323
*667 net324
*668 net325
*669 net326
*670 net327
*671 net328
*672 net329
*673 net33
*674 net330
*675 net331
*676 net332
*677 net333
*678 net334
*679 net335
*680 net336
*681 net337
*682 net338
*683 net339
*684 net34
*685 net340
*686 net341
*687 net342
*688 net343
*689 net344
*690 net345
*691 net346
*692 net347
*693 net348
*694 net349
*695 net35
*696 net350
*697 net351
*698 net352
*699 net353
*700 net354
*701 net355
*702 net356
*703 net357
*704 net358
*705 net359
*706 net36
*707 net360
*708 net361
*709 net362
*710 net363
*711 net364
*712 net365
*713 net366
*714 net367
*715 net368
*716 net369
*717 net37
*718 net370
*719 net371
*720 net372
*721 net373
*722 net374
*723 net375
*724 net376
*725 net377
*726 net378
*727 net379
*728 net38
*729 net380
*730 net381
*731 net382
*732 net383
*733 net384
*734 net385
*735 net386
*736 net387
*737 net388
*738 net389
*739 net39
*740 net390
*741 net391
*742 net392
*743 net393
*744 net394
*745 net395
*746 net396
*747 net397
*748 net398
*749 net399
*750 net4
*751 net40
*752 net400
*753 net401
*754 net402
*755 net403
*756 net404
*757 net405
*758 net406
*759 net407
*760 net408
*761 net409
*762 net41
*763 net410
*764 net411
*765 net412
*766 net413
*767 net414
*768 net415
*769 net416
*770 net417
*771 net418
*772 net419
*773 net42
*774 net420
*775 net421
*776 net422
*777 net423
*778 net424
*779 net425
*780 net426
*781 net427
*782 net428
*783 net429
*784 net43
*785 net430
*786 net431
*787 net432
*788 net433
*789 net434
*790 net435
*791 net436
*792 net437
*793 net438
*794 net439
*795 net44
*796 net440
*797 net441
*798 net442
*799 net443
*800 net444
*801 net445
*802 net446
*803 net447
*804 net448
*805 net449
*806 net45
*807 net450
*808 net451
*809 net452
*810 net453
*811 net454
*812 net455
*813 net456
*814 net457
*815 net458
*816 net459
*817 net46
*818 net460
*819 net461
*820 net462
*821 net463
*822 net464
*823 net465
*824 net466
*825 net467
*826 net468
*827 net469
*828 net47
*829 net470
*830 net471
*831 net472
*832 net473
*833 net474
*834 net475
*835 net476
*836 net477
*837 net478
*838 net479
*839 net48
*840 net480
*841 net481
*842 net482
*843 net483
*844 net484
*845 net485
*846 net486
*847 net487
*848 net488
*849 net489
*850 net49
*851 net490
*852 net491
*853 net492
*854 net493
*855 net494
*856 net495
*857 net496
*858 net497
*859 net498
*860 net499
*861 net5
*862 net50
*863 net500
*864 net501
*865 net502
*866 net503
*867 net504
*868 net505
*869 net506
*870 net507
*871 net508
*872 net509
*873 net51
*874 net510
*875 net511
*876 net512
*877 net513
*878 net514
*879 net515
*880 net516
*881 net517
*882 net518
*883 net519
*884 net52
*885 net520
*886 net521
*887 net522
*888 net523
*889 net524
*890 net525
*891 net526
*892 net527
*893 net528
*894 net529
*895 net53
*896 net530
*897 net531
*898 net532
*899 net533
*900 net534
*901 net535
*902 net536
*903 net537
*904 net538
*905 net539
*906 net54
*907 net540
*908 net541
*909 net542
*910 net543
*911 net544
*912 net545
*913 net546
*914 net547
*915 net548
*916 net549
*917 net55
*918 net550
*919 net551
*920 net552
*921 net553
*922 net554
*923 net555
*924 net556
*925 net557
*926 net558
*927 net559
*928 net56
*929 net560
*930 net561
*931 net562
*932 net563
*933 net564
*934 net565
*935 net566
*936 net567
*937 net568
*938 net569
*939 net57
*940 net570
*941 net571
*942 net572
*943 net573
*944 net574
*945 net575
*946 net576
*947 net577
*948 net578
*949 net579
*950 net58
*951 net580
*952 net581
*953 net582
*954 net583
*955 net584
*956 net585
*957 net586
*958 net587
*959 net588
*960 net589
*961 net59
*962 net590
*963 net591
*964 net592
*965 net593
*966 net594
*967 net595
*968 net596
*969 net597
*970 net598
*971 net599
*972 net6
*973 net60
*974 net600
*975 net601
*976 net602
*977 net603
*978 net604
*979 net605
*980 net606
*981 net607
*982 net608
*983 net609
*984 net61
*985 net610
*986 net611
*987 net612
*988 net613
*989 net614
*990 net615
*991 net616
*992 net617
*993 net618
*994 net619
*995 net62
*996 net620
*997 net621
*998 net622
*999 net623
*1000 net624
*1001 net625
*1002 net626
*1003 net627
*1004 net628
*1005 net629
*1006 net63
*1007 net630
*1008 net631
*1009 net632
*1010 net633
*1011 net634
*1012 net635
*1013 net636
*1014 net637
*1015 net638
*1016 net639
*1017 net64
*1018 net640
*1019 net641
*1020 net642
*1021 net643
*1022 net644
*1023 net645
*1024 net646
*1025 net647
*1026 net648
*1027 net649
*1028 net65
*1029 net650
*1030 net651
*1031 net652
*1032 net653
*1033 net654
*1034 net655
*1035 net656
*1036 net657
*1037 net658
*1038 net659
*1039 net66
*1040 net660
*1041 net661
*1042 net662
*1043 net663
*1044 net664
*1045 net665
*1046 net666
*1047 net667
*1048 net668
*1049 net669
*1050 net67
*1051 net670
*1052 net671
*1053 net672
*1054 net673
*1055 net674
*1056 net675
*1057 net676
*1058 net677
*1059 net678
*1060 net679
*1061 net68
*1062 net680
*1063 net681
*1064 net682
*1065 net683
*1066 net684
*1067 net685
*1068 net686
*1069 net687
*1070 net688
*1071 net689
*1072 net69
*1073 net690
*1074 net691
*1075 net692
*1076 net693
*1077 net694
*1078 net695
*1079 net696
*1080 net697
*1081 net698
*1082 net699
*1083 net7
*1084 net70
*1085 net700
*1086 net701
*1087 net702
*1088 net703
*1089 net704
*1090 net705
*1091 net706
*1092 net707
*1093 net708
*1094 net709
*1095 net71
*1096 net710
*1097 net711
*1098 net712
*1099 net713
*1100 net714
*1101 net715
*1102 net716
*1103 net717
*1104 net718
*1105 net719
*1106 net72
*1107 net720
*1108 net721
*1109 net722
*1110 net723
*1111 net724
*1112 net725
*1113 net726
*1114 net727
*1115 net728
*1116 net729
*1117 net73
*1118 net730
*1119 net731
*1120 net732
*1121 net733
*1122 net734
*1123 net735
*1124 net736
*1125 net737
*1126 net738
*1127 net739
*1128 net74
*1129 net740
*1130 net741
*1131 net742
*1132 net743
*1133 net744
*1134 net745
*1135 net746
*1136 net747
*1137 net748
*1138 net749
*1139 net75
*1140 net750
*1141 net751
*1142 net752
*1143 net753
*1144 net754
*1145 net755
*1146 net756
*1147 net757
*1148 net758
*1149 net759
*1150 net76
*1151 net760
*1152 net761
*1153 net762
*1154 net763
*1155 net764
*1156 net765
*1157 net766
*1158 net767
*1159 net768
*1160 net769
*1161 net77
*1162 net770
*1163 net771
*1164 net772
*1165 net773
*1166 net774
*1167 net775
*1168 net776
*1169 net777
*1170 net778
*1171 net779
*1172 net78
*1173 net780
*1174 net781
*1175 net782
*1176 net783
*1177 net784
*1178 net785
*1179 net786
*1180 net787
*1181 net788
*1182 net789
*1183 net79
*1184 net790
*1185 net791
*1186 net792
*1187 net793
*1188 net794
*1189 net795
*1190 net796
*1191 net797
*1192 net798
*1193 net799
*1194 net8
*1195 net80
*1196 net800
*1197 net801
*1198 net802
*1199 net803
*1200 net804
*1201 net805
*1202 net806
*1203 net807
*1204 net808
*1205 net809
*1206 net81
*1207 net810
*1208 net811
*1209 net812
*1210 net813
*1211 net814
*1212 net815
*1213 net816
*1214 net817
*1215 net818
*1216 net819
*1217 net82
*1218 net820
*1219 net821
*1220 net822
*1221 net823
*1222 net824
*1223 net825
*1224 net826
*1225 net827
*1226 net828
*1227 net829
*1228 net83
*1229 net830
*1230 net831
*1231 net832
*1232 net833
*1233 net834
*1234 net835
*1235 net836
*1236 net837
*1237 net838
*1238 net839
*1239 net84
*1240 net840
*1241 net841
*1242 net842
*1243 net843
*1244 net844
*1245 net845
*1246 net846
*1247 net847
*1248 net848
*1249 net849
*1250 net85
*1251 net850
*1252 net851
*1253 net852
*1254 net853
*1255 net854
*1256 net855
*1257 net856
*1258 net857
*1259 net858
*1260 net859
*1261 net86
*1262 net860
*1263 net861
*1264 net862
*1265 net863
*1266 net864
*1267 net865
*1268 net866
*1269 net867
*1270 net868
*1271 net869
*1272 net87
*1273 net870
*1274 net871
*1275 net872
*1276 net873
*1277 net874
*1278 net875
*1279 net876
*1280 net877
*1281 net878
*1282 net879
*1283 net88
*1284 net880
*1285 net881
*1286 net882
*1287 net883
*1288 net884
*1289 net885
*1290 net886
*1291 net887
*1292 net888
*1293 net889
*1294 net89
*1295 net890
*1296 net891
*1297 net892
*1298 net893
*1299 net894
*1300 net895
*1301 net896
*1302 net897
*1303 net898
*1304 net899
*1305 net9
*1306 net90
*1307 net900
*1308 net901
*1309 net902
*1310 net903
*1311 net904
*1312 net905
*1313 net906
*1314 net907
*1315 net908
*1316 net909
*1317 net91
*1318 net910
*1319 net911
*1320 net912
*1321 net913
*1322 net914
*1323 net915
*1324 net916
*1325 net917
*1326 net918
*1327 net919
*1328 net92
*1329 net920
*1330 net921
*1331 net922
*1332 net923
*1333 net924
*1334 net925
*1335 net926
*1336 net927
*1337 net928
*1338 net929
*1339 net93
*1340 net930
*1341 net931
*1342 net932
*1343 net933
*1344 net934
*1345 net935
*1346 net936
*1347 net937
*1348 net938
*1349 net939
*1350 net94
*1351 net940
*1352 net941
*1353 net942
*1354 net943
*1355 net944
*1356 net945
*1357 net946
*1358 net947
*1359 net948
*1360 net949
*1361 net95
*1362 net950
*1363 net951
*1364 net952
*1365 net953
*1366 net954
*1367 net955
*1368 net956
*1369 net957
*1370 net958
*1371 net959
*1372 net96
*1373 net960
*1374 net961
*1375 net962
*1376 net963
*1377 net964
*1378 net97
*1379 net98
*1380 net99
*1381 ANTENNA_c100_C
*1382 ANTENNA_c101_C_N
*1383 ANTENNA_c102_S0
*1384 ANTENNA_c102_S1
*1385 ANTENNA_c102_X
*1386 ANTENNA_c107_B
*1387 ANTENNA_c108_C
*1388 ANTENNA_c109_A2
*1389 ANTENNA_c109_S0
*1390 ANTENNA_c110_B
*1391 ANTENNA_c111_A
*1392 ANTENNA_c112_B
*1393 ANTENNA_c118_B1
*1394 ANTENNA_c119_B
*1395 ANTENNA_c124_D1
*1396 ANTENNA_c125_B
*1397 ANTENNA_c128_A1
*1398 ANTENNA_c129_A2
*1399 ANTENNA_c130_B1
*1400 ANTENNA_c132_A
*1401 ANTENNA_c132_B
*1402 ANTENNA_c133_A
*1403 ANTENNA_c135_A
*1404 ANTENNA_c135_B
*1405 ANTENNA_c137_X
*1406 ANTENNA_c138_C_N
*1407 ANTENNA_c139_B
*1408 ANTENNA_c140_X
*1409 ANTENNA_c141_B
*1410 ANTENNA_c142_A
*1411 ANTENNA_c142_B
*1412 ANTENNA_c143_B
*1413 ANTENNA_c144_A2
*1414 ANTENNA_c145_A2
*1415 ANTENNA_c146_C1
*1416 ANTENNA_c146_D1
*1417 ANTENNA_c146_X
*1418 ANTENNA_c147_A2
*1419 ANTENNA_c147_B1
*1420 ANTENNA_c147_C1
*1421 ANTENNA_c148_A
*1422 ANTENNA_c148_C
*1423 ANTENNA_c149_C1
*1424 ANTENNA_c149_D1
*1425 ANTENNA_c149_X
*1426 ANTENNA_c150_A1
*1427 ANTENNA_c150_B1
*1428 ANTENNA_c150_C1
*1429 ANTENNA_c150_X
*1430 ANTENNA_c151_A
*1431 ANTENNA_c151_B
*1432 ANTENNA_c151_C
*1433 ANTENNA_c151_X
*1434 ANTENNA_c152_C1
*1435 ANTENNA_c152_D1
*1436 ANTENNA_c152_X
*1437 ANTENNA_c153_A1
*1438 ANTENNA_c153_A2
*1439 ANTENNA_c153_B1
*1440 ANTENNA_c153_C1
*1441 ANTENNA_c153_X
*1442 ANTENNA_c154_B
*1443 ANTENNA_c156_C_N
*1444 ANTENNA_c156_D_N
*1445 ANTENNA_c156_X
*1446 ANTENNA_c158_A
*1447 ANTENNA_c158_B
*1448 ANTENNA_c159_B
*1449 ANTENNA_c159_C
*1450 ANTENNA_c162_A2
*1451 ANTENNA_c163_B
*1452 ANTENNA_c163_X
*1453 ANTENNA_c164_B
*1454 ANTENNA_c165_B
*1455 ANTENNA_c166_A0
*1456 ANTENNA_c166_A2
*1457 ANTENNA_c166_A3
*1458 ANTENNA_c166_S0
*1459 ANTENNA_c166_X
*1460 ANTENNA_c167_A
*1461 ANTENNA_c167_B
*1462 ANTENNA_c168_A2
*1463 ANTENNA_c168_B1
*1464 ANTENNA_c168_C1
*1465 ANTENNA_c170_D_N
*1466 ANTENNA_c170_X
*1467 ANTENNA_c171_A1
*1468 ANTENNA_c171_S0
*1469 ANTENNA_c172_A2
*1470 ANTENNA_c173_A1
*1471 ANTENNA_c173_S0
*1472 ANTENNA_c174_X
*1473 ANTENNA_c175_A2
*1474 ANTENNA_c175_A3
*1475 ANTENNA_c175_S1
*1476 ANTENNA_c175_X
*1477 ANTENNA_c176_A
*1478 ANTENNA_c176_B
*1479 ANTENNA_c177_B
*1480 ANTENNA_c178_C_N
*1481 ANTENNA_c178_D_N
*1482 ANTENNA_c180_X
*1483 ANTENNA_c181_B
*1484 ANTENNA_c181_C_N
*1485 ANTENNA_c181_D_N
*1486 ANTENNA_c182_B
*1487 ANTENNA_c184_X
*1488 ANTENNA_c186_X
*1489 ANTENNA_c187_A1
*1490 ANTENNA_c187_S1
*1491 ANTENNA_c188_X
*1492 ANTENNA_c193_A3
*1493 ANTENNA_c193_S0
*1494 ANTENNA_c194_X
*1495 ANTENNA_c195_A0
*1496 ANTENNA_c196_X
*1497 ANTENNA_c197_C_N
*1498 ANTENNA_c197_X
*1499 ANTENNA_c198_B
*1500 ANTENNA_c200_A
*1501 ANTENNA_c200_C
*1502 ANTENNA_c202_X
*1503 ANTENNA_c203_B
*1504 ANTENNA_c204_B
*1505 ANTENNA_c204_C
*1506 ANTENNA_c207_C
*1507 ANTENNA_c209_A3
*1508 ANTENNA_c209_X
*1509 ANTENNA_c211_B
*1510 ANTENNA_c212_B
*1511 ANTENNA_c212_C_N
*1512 ANTENNA_c212_D_N
*1513 ANTENNA_c212_X
*1514 ANTENNA_c213_A0
*1515 ANTENNA_c213_A1
*1516 ANTENNA_c213_A2
*1517 ANTENNA_c213_A3
*1518 ANTENNA_c213_S1
*1519 ANTENNA_c214_A1
*1520 ANTENNA_c214_A2
*1521 ANTENNA_c215_A1
*1522 ANTENNA_c215_S0
*1523 ANTENNA_c216_B
*1524 ANTENNA_c217_B1
*1525 ANTENNA_c219_Q
*1526 ANTENNA_c219_Q_N
*1527 ANTENNA_c219_SCE
*1528 ANTENNA_c222_B
*1529 ANTENNA_c225_B
*1530 ANTENNA_c225_X
*1531 ANTENNA_c226_A
*1532 ANTENNA_c226_B
*1533 ANTENNA_c227_B
*1534 ANTENNA_c227_X
*1535 ANTENNA_c230_B
*1536 ANTENNA_c232_A2
*1537 ANTENNA_c232_A3
*1538 ANTENNA_c232_S1
*1539 ANTENNA_c233_A1
*1540 ANTENNA_c233_A3
*1541 ANTENNA_c233_S1
*1542 ANTENNA_c235_A
*1543 ANTENNA_c236_A0
*1544 ANTENNA_c236_A2
*1545 ANTENNA_c237_C
*1546 ANTENNA_c239_S1
*1547 ANTENNA_c241_A2
*1548 ANTENNA_c241_C1
*1549 ANTENNA_c242_A
*1550 ANTENNA_c244_A
*1551 ANTENNA_c244_C
*1552 ANTENNA_c245_CLK
*1553 ANTENNA_c246_A
*1554 ANTENNA_c246_B
*1555 ANTENNA_c248_C
*1556 ANTENNA_c249_C
*1557 ANTENNA_c250_C_N
*1558 ANTENNA_c251_CLK_N
*1559 ANTENNA_c251_SET_B
*1560 ANTENNA_c252_C_N
*1561 ANTENNA_c253_C
*1562 ANTENNA_c257_B
*1563 ANTENNA_c257_C
*1564 ANTENNA_c260_A3
*1565 ANTENNA_c263_A0
*1566 ANTENNA_c264_A
*1567 ANTENNA_c264_B
*1568 ANTENNA_c264_X
*1569 ANTENNA_c265_A
*1570 ANTENNA_c265_B
*1571 ANTENNA_c266_A
*1572 ANTENNA_c266_B
*1573 ANTENNA_c266_X
*1574 ANTENNA_c267_A
*1575 ANTENNA_c268_B
*1576 ANTENNA_c269_A
*1577 ANTENNA_c269_B
*1578 ANTENNA_c270_A
*1579 ANTENNA_c270_C
*1580 ANTENNA_c272_A1
*1581 ANTENNA_c273_C_N
*1582 ANTENNA_c274_C_N
*1583 ANTENNA_c275_B
*1584 ANTENNA_c275_X
*1585 ANTENNA_c276_A
*1586 ANTENNA_c276_C
*1587 ANTENNA_c276_X
*1588 ANTENNA_c277_A
*1589 ANTENNA_c278_C
*1590 ANTENNA_c278_X
*1591 ANTENNA_c279_A1
*1592 ANTENNA_c279_S1
*1593 ANTENNA_c280_B1
*1594 ANTENNA_c280_X
*1595 ANTENNA_c281_A0
*1596 ANTENNA_c282_D_N
*1597 ANTENNA_c282_X
*1598 ANTENNA_c283_A0
*1599 ANTENNA_c283_S1
*1600 ANTENNA_c284_A2
*1601 ANTENNA_c284_S1
*1602 ANTENNA_c284_X
*1603 ANTENNA_c285_A1
*1604 ANTENNA_c285_A2
*1605 ANTENNA_c285_A3
*1606 ANTENNA_c286_C
*1607 ANTENNA_c287_A
*1608 ANTENNA_c288_C
*1609 ANTENNA_c289_A
*1610 ANTENNA_c290_B
*1611 ANTENNA_c290_X
*1612 ANTENNA_c291_B
*1613 ANTENNA_c291_X
*1614 ANTENNA_c292_A3
*1615 ANTENNA_c293_A3
*1616 ANTENNA_c293_S0
*1617 ANTENNA_c294_B
*1618 ANTENNA_c295_A1
*1619 ANTENNA_c295_A2
*1620 ANTENNA_c295_S0
*1621 ANTENNA_c297_A
*1622 ANTENNA_c298_C
*1623 ANTENNA_c298_X
*1624 ANTENNA_c299_X
*1625 ANTENNA_c300_A
*1626 ANTENNA_c301_B
*1627 ANTENNA_c301_C
*1628 ANTENNA_c301_X
*1629 ANTENNA_c302_A3
*1630 ANTENNA_c302_S0
*1631 ANTENNA_c302_S1
*1632 ANTENNA_c303_CLK_N
*1633 ANTENNA_c303_Q
*1634 ANTENNA_c303_SCD
*1635 ANTENNA_c303_SCE
*1636 ANTENNA_c304_A2
*1637 ANTENNA_c304_S0
*1638 ANTENNA_c305_C
*1639 ANTENNA_c306_A2
*1640 ANTENNA_c306_B1
*1641 ANTENNA_c306_C1
*1642 ANTENNA_c306_D1
*1643 ANTENNA_c307_A1
*1644 ANTENNA_c307_S0
*1645 ANTENNA_c307_S1
*1646 ANTENNA_c308_A
*1647 ANTENNA_c308_B
*1648 ANTENNA_c309_B
*1649 ANTENNA_c309_C
*1650 ANTENNA_c309_X
*1651 ANTENNA_c310_A
*1652 ANTENNA_c310_C
*1653 ANTENNA_c311_A
*1654 ANTENNA_c311_B
*1655 ANTENNA_c314_B
*1656 ANTENNA_c314_X
*1657 ANTENNA_c315_A
*1658 ANTENNA_c315_B
*1659 ANTENNA_c315_C
*1660 ANTENNA_c315_X
*1661 ANTENNA_c317_CLK
*1662 ANTENNA_c317_D
*1663 ANTENNA_c317_Q
*1664 ANTENNA_c317_RESET_B
*1665 ANTENNA_c317_SCD
*1666 ANTENNA_c317_SCE
*1667 ANTENNA_c318_A
*1668 ANTENNA_c318_C
*1669 ANTENNA_c319_A2
*1670 ANTENNA_c319_A3
*1671 ANTENNA_c319_S0
*1672 ANTENNA_c319_X
*1673 ANTENNA_c322_A2
*1674 ANTENNA_c322_C1
*1675 ANTENNA_c323_C_N
*1676 ANTENNA_c325_CLK_N
*1677 ANTENNA_c325_D
*1678 ANTENNA_c325_Q
*1679 ANTENNA_c325_Q_N
*1680 ANTENNA_c325_SET_B
*1681 ANTENNA_c326_CLK
*1682 ANTENNA_c326_SCE
*1683 ANTENNA_c327_C
*1684 ANTENNA_c328_D_N
*1685 ANTENNA_c329_A2
*1686 ANTENNA_c329_S0
*1687 ANTENNA_c330_CLK
*1688 ANTENNA_c330_D
*1689 ANTENNA_c330_Q
*1690 ANTENNA_c330_RESET_B
*1691 ANTENNA_c330_SCE
*1692 ANTENNA_c331_SCD
*1693 ANTENNA_c333_X
*1694 ANTENNA_c334_Q
*1695 ANTENNA_c334_SET_B
*1696 ANTENNA_c336_C_N
*1697 ANTENNA_c336_D_N
*1698 ANTENNA_c337_A2
*1699 ANTENNA_c337_C1
*1700 ANTENNA_c337_D1
*1701 ANTENNA_c340_X
*1702 ANTENNA_c341_CLK
*1703 ANTENNA_c341_Q
*1704 ANTENNA_c341_Q_N
*1705 ANTENNA_c341_SET_B
*1706 ANTENNA_c342_B
*1707 ANTENNA_c342_C_N
*1708 ANTENNA_c342_D_N
*1709 ANTENNA_c342_X
*1710 ANTENNA_c343_C_N
*1711 ANTENNA_c343_D_N
*1712 ANTENNA_c344_A2
*1713 ANTENNA_c344_B1
*1714 ANTENNA_c344_D1
*1715 ANTENNA_c345_A0
*1716 ANTENNA_c345_A2
*1717 ANTENNA_c345_A3
*1718 ANTENNA_c345_S1
*1719 ANTENNA_c346_A2
*1720 ANTENNA_c346_A3
*1721 ANTENNA_c346_S1
*1722 ANTENNA_c347_Q
*1723 ANTENNA_c347_Q_N
*1724 ANTENNA_c347_RESET_B
*1725 ANTENNA_c347_SCD
*1726 ANTENNA_c347_SCE
*1727 ANTENNA_c347_SET_B
*1728 ANTENNA_c348_A1
*1729 ANTENNA_c348_A3
*1730 ANTENNA_c349_A
*1731 ANTENNA_c350_A2
*1732 ANTENNA_c350_D1
*1733 ANTENNA_c351_C1
*1734 ANTENNA_c352_C
*1735 ANTENNA_c354_B
*1736 ANTENNA_c355_A
*1737 ANTENNA_c356_B
*1738 ANTENNA_c356_C
*1739 ANTENNA_c356_X
*1740 ANTENNA_c357_A0
*1741 ANTENNA_c357_A2
*1742 ANTENNA_c357_A3
*1743 ANTENNA_c357_S0
*1744 ANTENNA_c357_S1
*1745 ANTENNA_c358_A2
*1746 ANTENNA_c358_A3
*1747 ANTENNA_c359_A
*1748 ANTENNA_c361_X
*1749 ANTENNA_c363_C_N
*1750 ANTENNA_c363_X
*1751 ANTENNA_c365_B
*1752 ANTENNA_c367_B
*1753 ANTENNA_c368_C
*1754 ANTENNA_c370_X
*1755 ANTENNA_c372_A3
*1756 ANTENNA_c372_S0
*1757 ANTENNA_c373_S1
*1758 ANTENNA_c392_A0
*1759 ANTENNA_c392_A2
*1760 ANTENNA_c392_A3
*1761 ANTENNA_c392_S1
*1762 ANTENNA_c393_A2
*1763 ANTENNA_c393_A3
*1764 ANTENNA_c394_A0
*1765 ANTENNA_c394_A2
*1766 ANTENNA_c394_S0
*1767 ANTENNA_c396_A
*1768 ANTENNA_c397_A
*1769 ANTENNA_c397_X
*1770 ANTENNA_c398_A
*1771 ANTENNA_c398_B
*1772 ANTENNA_c399_A
*1773 ANTENNA_c399_B
*1774 ANTENNA_c400_B
*1775 ANTENNA_c400_D_N
*1776 ANTENNA_c401_B
*1777 ANTENNA_c402_A
*1778 ANTENNA_c403_A
*1779 ANTENNA_c403_X
*1780 ANTENNA_c404_C
*1781 ANTENNA_c406_C1
*1782 ANTENNA_c406_D1
*1783 ANTENNA_c407_B
*1784 ANTENNA_c408_B
*1785 ANTENNA_c408_C
*1786 ANTENNA_c409_X
*1787 ANTENNA_c410_B
*1788 ANTENNA_c415_A
*1789 ANTENNA_c415_B
*1790 ANTENNA_c416_S0
*1791 ANTENNA_c416_S1
*1792 ANTENNA_c417_A1
*1793 ANTENNA_c417_S0
*1794 ANTENNA_c418_C
*1795 ANTENNA_c419_C
*1796 ANTENNA_c420_B
*1797 ANTENNA_c420_X
*1798 ANTENNA_c421_B
*1799 ANTENNA_c422_B
*1800 ANTENNA_c422_C