*SPEF "ieee 1481-1999"
*DESIGN "netlist_0"
*DATE "14:49:00 Friday August 16, 2024"
*VENDOR "The OpenROAD Project"
*PROGRAM "OpenROAD"
*VERSION "d423155d69de7f683a23f6916ead418a615ad4ad"
*DESIGN_FLOW "NAME_SCOPE LOCAL" "PIN_CAP NONE"
*DIVIDER /
*DELIMITER :
*BUS_DELIMITER []
*T_UNIT 1 NS
*C_UNIT 1 PF
*R_UNIT 1 OHM
*L_UNIT 1 HENRY

*NAME_MAP
*3 clk
*4 in0
*5 in1
*6 in10
*7 in11
*8 in12
*9 in13
*10 in14
*11 in15
*12 in16
*13 in17
*14 in18
*15 in19
*16 in2
*17 in20
*18 in21
*19 in22
*20 in23
*21 in24
*22 in25
*23 in26
*24 in27
*25 in28
*26 in29
*27 in3
*28 in30
*29 in31
*30 in32
*31 in33
*32 in34
*33 in35
*34 in36
*35 in37
*36 in38
*37 in39
*38 in4
*39 in40
*40 in41
*41 in42
*42 in43
*43 in44
*44 in45
*45 in46
*46 in47
*47 in48
*48 in49
*49 in5
*50 in50
*51 in51
*52 in52
*53 in53
*54 in54
*55 in55
*56 in56
*57 in57
*58 in58
*59 in59
*60 in6
*61 in60
*62 in61
*63 in7
*64 in8
*65 in9
*66 out0
*67 out1
*68 out10
*69 out11
*70 out12
*71 out13
*72 out14
*73 out15
*74 out16
*75 out17
*76 out18
*77 out19
*78 out2
*79 out20
*80 out21
*81 out22
*82 out23
*83 out24
*84 out25
*85 out26
*86 out27
*87 out28
*88 out29
*89 out3
*90 out30
*91 out31
*92 out32
*93 out33
*94 out34
*95 out35
*96 out36
*97 out37
*98 out38
*99 out39
*100 out4
*101 out40
*102 out41
*103 out42
*104 out43
*105 out44
*106 out45
*107 out46
*108 out47
*109 out48
*110 out49
*111 out5
*112 out50
*113 out51
*114 out52
*115 out53
*116 out54
*117 out55
*118 out56
*119 out57
*120 out58
*121 out59
*122 out6
*123 out60
*124 out61
*125 out7
*126 out8
*127 out9
*128 rst
*129 clknet_0_clk
*130 clknet_0_net170
*131 clknet_0_net177
*132 clknet_0_net179
*133 clknet_0_net180
*134 clknet_0_net186
*135 clknet_0_net276
*136 clknet_0_net281
*137 clknet_0_net389
*138 clknet_0_net391
*139 clknet_0_net398
*140 clknet_0_net420
*141 clknet_0_net495
*142 clknet_0_net502
*143 clknet_0_net511
*144 clknet_0_net532
*145 clknet_0_net577
*146 clknet_0_net595
*147 clknet_0_net600
*148 clknet_0_net602
*149 clknet_0_net608
*150 clknet_0_net610
*151 clknet_0_net611
*152 clknet_0_net615
*153 clknet_0_net709
*154 clknet_0_net710
*155 clknet_0_net711
*156 clknet_0_net744
*157 clknet_0_net758
*158 clknet_0_net759
*159 clknet_0_net775
*160 clknet_0_net776
*161 clknet_0_net777
*162 clknet_0_net796
*163 clknet_0_net797
*164 clknet_0_net798
*165 clknet_0_net817
*166 clknet_0_net818
*167 clknet_0_net879
*168 clknet_0_net901
*169 clknet_0_net902
*170 clknet_0_net905
*171 clknet_0_net910
*172 clknet_0_net911
*173 clknet_0_net924
*174 clknet_1_0__leaf_net170
*175 clknet_1_0__leaf_net177
*176 clknet_1_0__leaf_net179
*177 clknet_1_0__leaf_net180
*178 clknet_1_0__leaf_net186
*179 clknet_1_0__leaf_net276
*180 clknet_1_0__leaf_net281
*181 clknet_1_0__leaf_net389
*182 clknet_1_0__leaf_net391
*183 clknet_1_0__leaf_net398
*184 clknet_1_0__leaf_net420
*185 clknet_1_0__leaf_net495
*186 clknet_1_0__leaf_net502
*187 clknet_1_0__leaf_net511
*188 clknet_1_0__leaf_net532
*189 clknet_1_0__leaf_net577
*190 clknet_1_0__leaf_net595
*191 clknet_1_0__leaf_net600
*192 clknet_1_0__leaf_net602
*193 clknet_1_0__leaf_net608
*194 clknet_1_0__leaf_net610
*195 clknet_1_0__leaf_net611
*196 clknet_1_0__leaf_net615
*197 clknet_1_0__leaf_net709
*198 clknet_1_0__leaf_net710
*199 clknet_1_0__leaf_net711
*200 clknet_1_0__leaf_net744
*201 clknet_1_0__leaf_net758
*202 clknet_1_0__leaf_net759
*203 clknet_1_0__leaf_net775
*204 clknet_1_0__leaf_net776
*205 clknet_1_0__leaf_net777
*206 clknet_1_0__leaf_net796
*207 clknet_1_0__leaf_net797
*208 clknet_1_0__leaf_net798
*209 clknet_1_0__leaf_net817
*210 clknet_1_0__leaf_net818
*211 clknet_1_0__leaf_net879
*212 clknet_1_0__leaf_net901
*213 clknet_1_0__leaf_net902
*214 clknet_1_0__leaf_net905
*215 clknet_1_0__leaf_net910
*216 clknet_1_0__leaf_net911
*217 clknet_1_0__leaf_net924
*218 clknet_1_1__leaf_net170
*219 clknet_1_1__leaf_net177
*220 clknet_1_1__leaf_net179
*221 clknet_1_1__leaf_net180
*222 clknet_1_1__leaf_net186
*223 clknet_1_1__leaf_net276
*224 clknet_1_1__leaf_net281
*225 clknet_1_1__leaf_net389
*226 clknet_1_1__leaf_net391
*227 clknet_1_1__leaf_net398
*228 clknet_1_1__leaf_net420
*229 clknet_1_1__leaf_net495
*230 clknet_1_1__leaf_net502
*231 clknet_1_1__leaf_net511
*232 clknet_1_1__leaf_net532
*233 clknet_1_1__leaf_net577
*234 clknet_1_1__leaf_net595
*235 clknet_1_1__leaf_net600
*236 clknet_1_1__leaf_net602
*237 clknet_1_1__leaf_net608
*238 clknet_1_1__leaf_net610
*239 clknet_1_1__leaf_net611
*240 clknet_1_1__leaf_net615
*241 clknet_1_1__leaf_net709
*242 clknet_1_1__leaf_net710
*243 clknet_1_1__leaf_net711
*244 clknet_1_1__leaf_net744
*245 clknet_1_1__leaf_net758
*246 clknet_1_1__leaf_net759
*247 clknet_1_1__leaf_net775
*248 clknet_1_1__leaf_net776
*249 clknet_1_1__leaf_net777
*250 clknet_1_1__leaf_net796
*251 clknet_1_1__leaf_net797
*252 clknet_1_1__leaf_net798
*253 clknet_1_1__leaf_net817
*254 clknet_1_1__leaf_net818
*255 clknet_1_1__leaf_net879
*256 clknet_1_1__leaf_net901
*257 clknet_1_1__leaf_net902
*258 clknet_1_1__leaf_net905
*259 clknet_1_1__leaf_net910
*260 clknet_1_1__leaf_net911
*261 clknet_1_1__leaf_net924
*262 clknet_4_0_0_clk
*263 clknet_4_10_0_clk
*264 clknet_4_11_0_clk
*265 clknet_4_12_0_clk
*266 clknet_4_13_0_clk
*267 clknet_4_14_0_clk
*268 clknet_4_15_0_clk
*269 clknet_4_1_0_clk
*270 clknet_4_2_0_clk
*271 clknet_4_3_0_clk
*272 clknet_4_4_0_clk
*273 clknet_4_5_0_clk
*274 clknet_4_6_0_clk
*275 clknet_4_7_0_clk
*276 clknet_4_8_0_clk
*277 clknet_4_9_0_clk
*278 net0
*279 net1
*280 net10
*281 net100
*282 net1000
*283 net1001
*284 net1002
*285 net1003
*286 net1004
*287 net1005
*288 net1006
*289 net1007
*290 net1008
*291 net1009
*292 net101
*293 net1010
*294 net1011
*295 net1012
*296 net1013
*297 net1014
*298 net1015
*299 net1016
*300 net1017
*301 net1018
*302 net1019
*303 net102
*304 net1020
*305 net1021
*306 net1022
*307 net1023
*308 net1024
*309 net1025
*310 net1026
*311 net1027
*312 net1028
*313 net1029
*314 net103
*315 net1030
*316 net1031
*317 net1032
*318 net1033
*319 net1034
*320 net1035
*321 net1036
*322 net1037
*323 net1038
*324 net1039
*325 net104
*326 net1040
*327 net1041
*328 net1042
*329 net1043
*330 net1044
*331 net1045
*332 net1046
*333 net1047
*334 net1048
*335 net1049
*336 net105
*337 net1050
*338 net1051
*339 net1052
*340 net1053
*341 net1054
*342 net1055
*343 net1056
*344 net1057
*345 net1058
*346 net1059
*347 net106
*348 net1060
*349 net1061
*350 net1062
*351 net1063
*352 net1064
*353 net1065
*354 net1066
*355 net1067
*356 net1068
*357 net1069
*358 net107
*359 net1070
*360 net1071
*361 net1072
*362 net1073
*363 net1074
*364 net1075
*365 net1076
*366 net1077
*367 net1078
*368 net1079
*369 net108
*370 net1080
*371 net1081
*372 net1082
*373 net1083
*374 net109
*375 net11
*376 net110
*377 net111
*378 net112
*379 net113
*380 net114
*381 net115
*382 net116
*383 net117
*384 net118
*385 net119
*386 net12
*387 net120
*388 net121
*389 net122
*390 net123
*391 net124
*392 net125
*393 net126
*394 net127
*395 net128
*396 net129
*397 net13
*398 net130
*399 net131
*400 net132
*401 net133
*402 net134
*403 net135
*404 net136
*405 net137
*406 net138
*407 net139
*408 net14
*409 net140
*410 net141
*411 net142
*412 net143
*413 net144
*414 net145
*415 net146
*416 net147
*417 net148
*418 net149
*419 net15
*420 net150
*421 net151
*422 net152
*423 net153
*424 net154
*425 net155
*426 net156
*427 net157
*428 net158
*429 net159
*430 net16
*431 net160
*432 net161
*433 net162
*434 net163
*435 net164
*436 net165
*437 net166
*438 net167
*439 net168
*440 net169
*441 net17
*442 net170
*443 net171
*444 net172
*445 net173
*446 net174
*447 net175
*448 net176
*449 net177
*450 net178
*451 net179
*452 net18
*453 net180
*454 net181
*455 net182
*456 net183
*457 net184
*458 net185
*459 net186
*460 net187
*461 net188
*462 net189
*463 net19
*464 net190
*465 net191
*466 net192
*467 net193
*468 net194
*469 net195
*470 net196
*471 net197
*472 net198
*473 net199
*474 net2
*475 net20
*476 net200
*477 net201
*478 net202
*479 net203
*480 net204
*481 net205
*482 net206
*483 net207
*484 net208
*485 net209
*486 net21
*487 net210
*488 net211
*489 net212
*490 net213
*491 net214
*492 net215
*493 net216
*494 net217
*495 net218
*496 net219
*497 net22
*498 net220
*499 net221
*500 net222
*501 net223
*502 net224
*503 net225
*504 net226
*505 net227
*506 net228
*507 net229
*508 net23
*509 net230
*510 net231
*511 net232
*512 net233
*513 net234
*514 net235
*515 net236
*516 net237
*517 net238
*518 net239
*519 net24
*520 net240
*521 net241
*522 net242
*523 net243
*524 net244
*525 net245
*526 net246
*527 net247
*528 net248
*529 net249
*530 net25
*531 net250
*532 net251
*533 net252
*534 net253
*535 net254
*536 net255
*537 net256
*538 net257
*539 net258
*540 net259
*541 net26
*542 net260
*543 net261
*544 net262
*545 net263
*546 net264
*547 net265
*548 net266
*549 net267
*550 net268
*551 net269
*552 net27
*553 net270
*554 net271
*555 net272
*556 net273
*557 net274
*558 net275
*559 net276
*560 net277
*561 net278
*562 net279
*563 net28
*564 net280
*565 net281
*566 net282
*567 net283
*568 net284
*569 net285
*570 net286
*571 net287
*572 net288
*573 net289
*574 net29
*575 net290
*576 net291
*577 net292
*578 net293
*579 net294
*580 net295
*581 net296
*582 net297
*583 net298
*584 net299
*585 net3
*586 net30
*587 net300
*588 net301
*589 net302
*590 net303
*591 net304
*592 net305
*593 net306
*594 net307
*595 net308
*596 net309
*597 net31
*598 net310
*599 net311
*600 net312
*601 net313
*602 net314
*603 net315
*604 net316
*605 net317
*606 net318
*607 net319
*608 net32
*609 net320
*610 net321
*611 net322
*612 net323
*613 net324
*614 net325
*615 net326
*616 net327
*617 net328
*618 net329
*619 net33
*620 net330
*621 net331
*622 net332
*623 net333
*624 net334
*625 net335
*626 net336
*627 net337
*628 net338
*629 net339
*630 net34
*631 net340
*632 net341
*633 net342
*634 net343
*635 net344
*636 net345
*637 net346
*638 net347
*639 net348
*640 net349
*641 net35
*642 net350
*643 net351
*644 net352
*645 net353
*646 net354
*647 net355
*648 net356
*649 net357
*650 net358
*651 net359
*652 net36
*653 net360
*654 net361
*655 net362
*656 net363
*657 net364
*658 net365
*659 net366
*660 net367
*661 net368
*662 net369
*663 net37
*664 net370
*665 net371
*666 net372
*667 net373
*668 net374
*669 net375
*670 net376
*671 net377
*672 net378
*673 net379
*674 net38
*675 net380
*676 net381
*677 net382
*678 net383
*679 net384
*680 net385
*681 net386
*682 net387
*683 net388
*684 net389
*685 net39
*686 net390
*687 net391
*688 net392
*689 net393
*690 net394
*691 net395
*692 net396
*693 net397
*694 net398
*695 net399
*696 net4
*697 net40
*698 net400
*699 net401
*700 net402
*701 net403
*702 net404
*703 net405
*704 net406
*705 net407
*706 net408
*707 net409
*708 net41
*709 net410
*710 net411
*711 net412
*712 net413
*713 net414
*714 net415
*715 net416
*716 net417
*717 net418
*718 net419
*719 net42
*720 net420
*721 net421
*722 net422
*723 net423
*724 net424
*725 net425
*726 net426
*727 net427
*728 net428
*729 net429
*730 net43
*731 net430
*732 net431
*733 net432
*734 net433
*735 net434
*736 net435
*737 net436
*738 net437
*739 net438
*740 net439
*741 net44
*742 net440
*743 net441
*744 net442
*745 net443
*746 net444
*747 net445
*748 net446
*749 net447
*750 net448
*751 net449
*752 net45
*753 net450
*754 net451
*755 net452
*756 net453
*757 net454
*758 net455
*759 net456
*760 net457
*761 net458
*762 net459
*763 net46
*764 net460
*765 net461
*766 net462
*767 net463
*768 net464
*769 net465
*770 net466
*771 net467
*772 net468
*773 net469
*774 net47
*775 net470
*776 net471
*777 net472
*778 net473
*779 net474
*780 net475
*781 net476
*782 net477
*783 net478
*784 net479
*785 net48
*786 net480
*787 net481
*788 net482
*789 net483
*790 net484
*791 net485
*792 net486
*793 net487
*794 net488
*795 net489
*796 net49
*797 net490
*798 net491
*799 net492
*800 net493
*801 net494
*802 net495
*803 net496
*804 net497
*805 net498
*806 net499
*807 net5
*808 net50
*809 net500
*810 net501
*811 net502
*812 net503
*813 net504
*814 net505
*815 net506
*816 net507
*817 net508
*818 net509
*819 net51
*820 net510
*821 net511
*822 net512
*823 net513
*824 net514
*825 net515
*826 net516
*827 net517
*828 net518
*829 net519
*830 net52
*831 net520
*832 net521
*833 net522
*834 net523
*835 net524
*836 net525
*837 net526
*838 net527
*839 net528
*840 net529
*841 net53
*842 net530
*843 net531
*844 net532
*845 net533
*846 net534
*847 net535
*848 net536
*849 net537
*850 net538
*851 net539
*852 net54
*853 net540
*854 net541
*855 net542
*856 net543
*857 net544
*858 net545
*859 net546
*860 net547
*861 net548
*862 net549
*863 net55
*864 net550
*865 net551
*866 net552
*867 net553
*868 net554
*869 net555
*870 net556
*871 net557
*872 net558
*873 net559
*874 net56
*875 net560
*876 net561
*877 net562
*878 net563
*879 net564
*880 net565
*881 net566
*882 net567
*883 net568
*884 net569
*885 net57
*886 net570
*887 net571
*888 net572
*889 net573
*890 net574
*891 net575
*892 net576
*893 net577
*894 net578
*895 net579
*896 net58
*897 net580
*898 net581
*899 net582
*900 net583
*901 net584
*902 net585
*903 net586
*904 net587
*905 net588
*906 net589
*907 net59
*908 net590
*909 net591
*910 net592
*911 net593
*912 net594
*913 net595
*914 net596
*915 net597
*916 net598
*917 net599
*918 net6
*919 net60
*920 net600
*921 net601
*922 net602
*923 net603
*924 net604
*925 net605
*926 net606
*927 net607
*928 net608
*929 net609
*930 net61
*931 net610
*932 net611
*933 net612
*934 net613
*935 net614
*936 net615
*937 net616
*938 net617
*939 net618
*940 net619
*941 net62
*942 net620
*943 net621
*944 net622
*945 net623
*946 net624
*947 net625
*948 net626
*949 net627
*950 net628
*951 net629
*952 net63
*953 net630
*954 net631
*955 net632
*956 net633
*957 net634
*958 net635
*959 net636
*960 net637
*961 net638
*962 net639
*963 net64
*964 net640
*965 net641
*966 net642
*967 net643
*968 net644
*969 net645
*970 net646
*971 net647
*972 net648
*973 net649
*974 net65
*975 net650
*976 net651
*977 net652
*978 net653
*979 net654
*980 net655
*981 net656
*982 net657
*983 net658
*984 net659
*985 net66
*986 net660
*987 net661
*988 net662
*989 net663
*990 net664
*991 net665
*992 net666
*993 net667
*994 net668
*995 net669
*996 net67
*997 net670
*998 net671
*999 net672
*1000 net673
*1001 net674
*1002 net675
*1003 net676
*1004 net677
*1005 net678
*1006 net679
*1007 net68
*1008 net680
*1009 net681
*1010 net682
*1011 net683
*1012 net684
*1013 net685
*1014 net686
*1015 net687
*1016 net688
*1017 net689
*1018 net69
*1019 net690
*1020 net691
*1021 net692
*1022 net693
*1023 net694
*1024 net695
*1025 net696
*1026 net697
*1027 net698
*1028 net699
*1029 net7
*1030 net70
*1031 net700
*1032 net701
*1033 net702
*1034 net703
*1035 net704
*1036 net705
*1037 net706
*1038 net707
*1039 net708
*1040 net709
*1041 net71
*1042 net710
*1043 net711
*1044 net712
*1045 net713
*1046 net714
*1047 net715
*1048 net716
*1049 net717
*1050 net718
*1051 net719
*1052 net72
*1053 net720
*1054 net721
*1055 net722
*1056 net723
*1057 net724
*1058 net725
*1059 net726
*1060 net727
*1061 net728
*1062 net729
*1063 net73
*1064 net730
*1065 net731
*1066 net732
*1067 net733
*1068 net734
*1069 net735
*1070 net736
*1071 net737
*1072 net738
*1073 net739
*1074 net74
*1075 net740
*1076 net741
*1077 net742
*1078 net743
*1079 net744
*1080 net745
*1081 net746
*1082 net747
*1083 net748
*1084 net749
*1085 net75
*1086 net750
*1087 net751
*1088 net752
*1089 net753
*1090 net754
*1091 net755
*1092 net756
*1093 net757
*1094 net758
*1095 net759
*1096 net76
*1097 net760
*1098 net761
*1099 net762
*1100 net763
*1101 net764
*1102 net765
*1103 net766
*1104 net767
*1105 net768
*1106 net769
*1107 net77
*1108 net770
*1109 net771
*1110 net772
*1111 net773
*1112 net774
*1113 net775
*1114 net776
*1115 net777
*1116 net778
*1117 net779
*1118 net78
*1119 net780
*1120 net781
*1121 net782
*1122 net783
*1123 net784
*1124 net785
*1125 net786
*1126 net787
*1127 net788
*1128 net789
*1129 net79
*1130 net790
*1131 net791
*1132 net792
*1133 net793
*1134 net794
*1135 net795
*1136 net796
*1137 net797
*1138 net798
*1139 net799
*1140 net8
*1141 net80
*1142 net800
*1143 net801
*1144 net802
*1145 net803
*1146 net804
*1147 net805
*1148 net806
*1149 net807
*1150 net808
*1151 net809
*1152 net81
*1153 net810
*1154 net811
*1155 net812
*1156 net813
*1157 net814
*1158 net815
*1159 net816
*1160 net817
*1161 net818
*1162 net819
*1163 net82
*1164 net820
*1165 net821
*1166 net822
*1167 net823
*1168 net824
*1169 net825
*1170 net826
*1171 net827
*1172 net828
*1173 net829
*1174 net83
*1175 net830
*1176 net831
*1177 net832
*1178 net833
*1179 net834
*1180 net835
*1181 net836
*1182 net837
*1183 net838
*1184 net839
*1185 net84
*1186 net840
*1187 net841
*1188 net842
*1189 net843
*1190 net844
*1191 net845
*1192 net846
*1193 net847
*1194 net848
*1195 net849
*1196 net85
*1197 net850
*1198 net851
*1199 net852
*1200 net853
*1201 net854
*1202 net855
*1203 net856
*1204 net857
*1205 net858
*1206 net859
*1207 net86
*1208 net860
*1209 net861
*1210 net862
*1211 net863
*1212 net864
*1213 net865
*1214 net866
*1215 net867
*1216 net868
*1217 net869
*1218 net87
*1219 net870
*1220 net871
*1221 net872
*1222 net873
*1223 net874
*1224 net875
*1225 net876
*1226 net877
*1227 net878
*1228 net879
*1229 net88
*1230 net880
*1231 net881
*1232 net882
*1233 net883
*1234 net884
*1235 net885
*1236 net886
*1237 net887
*1238 net888
*1239 net889
*1240 net89
*1241 net890
*1242 net891
*1243 net892
*1244 net893
*1245 net894
*1246 net895
*1247 net896
*1248 net897
*1249 net898
*1250 net899
*1251 net9
*1252 net90
*1253 net900
*1254 net901
*1255 net902
*1256 net903
*1257 net904
*1258 net905
*1259 net906
*1260 net907
*1261 net908
*1262 net909
*1263 net91
*1264 net910
*1265 net911
*1266 net912
*1267 net913
*1268 net914
*1269 net915
*1270 net916
*1271 net917
*1272 net918
*1273 net919
*1274 net92
*1275 net920
*1276 net921
*1277 net922
*1278 net923
*1279 net924
*1280 net925
*1281 net926
*1282 net927
*1283 net928
*1284 net929
*1285 net93
*1286 net930
*1287 net931
*1288 net932
*1289 net933
*1290 net934
*1291 net935
*1292 net936
*1293 net937
*1294 net938
*1295 net939
*1296 net94
*1297 net940
*1298 net941
*1299 net942
*1300 net943
*1301 net944
*1302 net945
*1303 net946
*1304 net947
*1305 net948
*1306 net949
*1307 net95
*1308 net950
*1309 net951
*1310 net952
*1311 net953
*1312 net954
*1313 net955
*1314 net956
*1315 net957
*1316 net958
*1317 net959
*1318 net96
*1319 net960
*1320 net961
*1321 net962
*1322 net963
*1323 net964
*1324 net965
*1325 net966
*1326 net967
*1327 net968
*1328 net969
*1329 net97
*1330 net970
*1331 net971
*1332 net972
*1333 net973
*1334 net974
*1335 net975
*1336 net976
*1337 net977
*1338 net978
*1339 net979
*1340 net98
*1341 net980
*1342 net981
*1343 net982
*1344 net983
*1345 net984
*1346 net985
*1347 net986
*1348 net987
*1349 net988
*1350 net989
*1351 net99
*1352 net990
*1353 net991
*1354 net992
*1355 net993
*1356 net994
*1357 net995
*1358 net996
*1359 net997
*1360 net998
*1361 net999
*1362 ANTENNA_1
*1363 ANTENNA_2
*1364 ANTENNA_3
*1365 ANTENNA_4
*1366 ANTENNA_c100_A1
*1367 ANTENNA_c100_B1_N
*1368 ANTENNA_c100_X
*1369 ANTENNA_c101_A1
*1370 ANTENNA_c101_A2
*1371 ANTENNA_c101_A4
*1372 ANTENNA_c102_A1
*1373 ANTENNA_c102_A2
*1374 ANTENNA_c102_B1_N
*1375 ANTENNA_c103_A3
*1376 ANTENNA_c103_B1
*1377 ANTENNA_c104_A2
*1378 ANTENNA_c104_S0
*1379 ANTENNA_c104_S1
*1380 ANTENNA_c105_A2
*1381 ANTENNA_c105_A3
*1382 ANTENNA_c105_A4
*1383 ANTENNA_c105_B1
*1384 ANTENNA_c106_A0
*1385 ANTENNA_c106_A3
*1386 ANTENNA_c107_A1
*1387 ANTENNA_c107_A2
*1388 ANTENNA_c107_A4
*1389 ANTENNA_c107_X
*1390 ANTENNA_c108_S1
*1391 ANTENNA_c108_X
*1392 ANTENNA_c109_A3
*1393 ANTENNA_c110_A0
*1394 ANTENNA_c110_A1
*1395 ANTENNA_c110_A2
*1396 ANTENNA_c110_A3
*1397 ANTENNA_c110_S0
*1398 ANTENNA_c110_S1
*1399 ANTENNA_c111_A2
*1400 ANTENNA_c111_B1_N
*1401 ANTENNA_c112_A1
*1402 ANTENNA_c112_A2
*1403 ANTENNA_c112_A3
*1404 ANTENNA_c112_B1
*1405 ANTENNA_c113_A1
*1406 ANTENNA_c113_B1_N
*1407 ANTENNA_c113_X
*1408 ANTENNA_c114_A1
*1409 ANTENNA_c114_A2
*1410 ANTENNA_c114_B1_N
*1411 ANTENNA_c115_A3
*1412 ANTENNA_c115_B1
*1413 ANTENNA_c116_A1
*1414 ANTENNA_c116_B1
*1415 ANTENNA_c118_A1
*1416 ANTENNA_c118_B1_N
*1417 ANTENNA_c118_X
*1418 ANTENNA_c119_A1
*1419 ANTENNA_c119_A2
*1420 ANTENNA_c119_A3
*1421 ANTENNA_c119_A4
*1422 ANTENNA_c119_B1
*1423 ANTENNA_c120_A1
*1424 ANTENNA_c120_A4
*1425 ANTENNA_c120_B1
*1426 ANTENNA_c121_B1
*1427 ANTENNA_c121_X
*1428 ANTENNA_c122_A1
*1429 ANTENNA_c122_A2
*1430 ANTENNA_c122_B1_N
*1431 ANTENNA_c123_A2
*1432 ANTENNA_c123_S0
*1433 ANTENNA_c123_S1
*1434 ANTENNA_c124_A1
*1435 ANTENNA_c124_B1_N
*1436 ANTENNA_c125_A1
*1437 ANTENNA_c125_A4
*1438 ANTENNA_c126_A2
*1439 ANTENNA_c126_A3
*1440 ANTENNA_c126_S0
*1441 ANTENNA_c126_X
*1442 ANTENNA_c127_A0
*1443 ANTENNA_c127_A2
*1444 ANTENNA_c127_A3
*1445 ANTENNA_c127_S0
*1446 ANTENNA_c127_S1
*1447 ANTENNA_c128_A1
*1448 ANTENNA_c128_A3
*1449 ANTENNA_c128_B1
*1450 ANTENNA_c129_A0
*1451 ANTENNA_c129_A1
*1452 ANTENNA_c129_A3
*1453 ANTENNA_c129_S0
*1454 ANTENNA_c130_S0
*1455 ANTENNA_c131_CLK_N
*1456 ANTENNA_c131_D
*1457 ANTENNA_c131_SCE
*1458 ANTENNA_c132_A1
*1459 ANTENNA_c132_A2
*1460 ANTENNA_c132_B1_N
*1461 ANTENNA_c133_A2
*1462 ANTENNA_c133_A3
*1463 ANTENNA_c133_B1
*1464 ANTENNA_c133_X
*1465 ANTENNA_c134_A1
*1466 ANTENNA_c134_A2
*1467 ANTENNA_c134_B1_N
*1468 ANTENNA_c134_X
*1469 ANTENNA_c135_A1
*1470 ANTENNA_c135_A2
*1471 ANTENNA_c135_B1_N
*1472 ANTENNA_c135_X
*1473 ANTENNA_c136_A1
*1474 ANTENNA_c136_A2
*1475 ANTENNA_c136_B1_N
*1476 ANTENNA_c136_X
*1477 ANTENNA_c137_A1
*1478 ANTENNA_c137_A2
*1479 ANTENNA_c137_B1_N
*1480 ANTENNA_c137_X
*1481 ANTENNA_c138_A1
*1482 ANTENNA_c138_A2
*1483 ANTENNA_c138_X
*1484 ANTENNA_c139_A2
*1485 ANTENNA_c139_B1_N
*1486 ANTENNA_c139_X
*1487 ANTENNA_c140_A1
*1488 ANTENNA_c140_A2
*1489 ANTENNA_c140_B1_N
*1490 ANTENNA_c141_A1
*1491 ANTENNA_c141_A2
*1492 ANTENNA_c141_A3
*1493 ANTENNA_c141_B1
*1494 ANTENNA_c141_X
*1495 ANTENNA_c142_A1
*1496 ANTENNA_c142_A2
*1497 ANTENNA_c142_A3
*1498 ANTENNA_c142_A4
*1499 ANTENNA_c142_B1
*1500 ANTENNA_c142_X
*1501 ANTENNA_c143_A
*1502 ANTENNA_c143_B
*1503 ANTENNA_c143_Y
*1504 ANTENNA_c144_A1
*1505 ANTENNA_c144_A2
*1506 ANTENNA_c144_B1_N
*1507 ANTENNA_c144_X
*1508 ANTENNA_c145_A1
*1509 ANTENNA_c145_B1_N
*1510 ANTENNA_c145_X
*1511 ANTENNA_c146_A1
*1512 ANTENNA_c146_A2
*1513 ANTENNA_c146_B1_N
*1514 ANTENNA_c146_X
*1515 ANTENNA_c147_A0
*1516 ANTENNA_c147_A1
*1517 ANTENNA_c147_A2
*1518 ANTENNA_c147_A3
*1519 ANTENNA_c147_S0
*1520 ANTENNA_c147_S1
*1521 ANTENNA_c147_X
*1522 ANTENNA_c148_A1
*1523 ANTENNA_c148_A2
*1524 ANTENNA_c148_B1_N
*1525 ANTENNA_c149_A0
*1526 ANTENNA_c149_A1
*1527 ANTENNA_c149_A2
*1528 ANTENNA_c149_A3
*1529 ANTENNA_c149_S0
*1530 ANTENNA_c149_S1
*1531 ANTENNA_c150_A0
*1532 ANTENNA_c150_A1
*1533 ANTENNA_c150_A3
*1534 ANTENNA_c150_S0
*1535 ANTENNA_c150_S1
*1536 ANTENNA_c150_X
*1537 ANTENNA_c151_A2
*1538 ANTENNA_c151_X
*1539 ANTENNA_c152_A0
*1540 ANTENNA_c152_A2
*1541 ANTENNA_c152_S0
*1542 ANTENNA_c152_S1
*1543 ANTENNA_c152_X
*1544 ANTENNA_c153_A0
*1545 ANTENNA_c153_A2
*1546 ANTENNA_c153_A3
*1547 ANTENNA_c153_S0
*1548 ANTENNA_c153_S1
*1549 ANTENNA_c153_X
*1550 ANTENNA_c154_A1
*1551 ANTENNA_c154_A2
*1552 ANTENNA_c154_A3
*1553 ANTENNA_c154_A4
*1554 ANTENNA_c154_B1
*1555 ANTENNA_c155_A1
*1556 ANTENNA_c155_A2
*1557 ANTENNA_c155_B1_N
*1558 ANTENNA_c155_X
*1559 ANTENNA_c156_A1
*1560 ANTENNA_c156_A2
*1561 ANTENNA_c157_A1
*1562 ANTENNA_c157_A3
*1563 ANTENNA_c157_B1
*1564 ANTENNA_c157_X
*1565 ANTENNA_c158_A1
*1566 ANTENNA_c158_A2
*1567 ANTENNA_c158_A3
*1568 ANTENNA_c158_B1
*1569 ANTENNA_c159_A2
*1570 ANTENNA_c159_A3
*1571 ANTENNA_c159_A4
*1572 ANTENNA_c159_B1
*1573 ANTENNA_c160_A1
*1574 ANTENNA_c160_A2
*1575 ANTENNA_c161_A2
*1576 ANTENNA_c161_B1_N
*1577 ANTENNA_c161_X
*1578 ANTENNA_c162_A0
*1579 ANTENNA_c162_A2
*1580 ANTENNA_c162_A3
*1581 ANTENNA_c162_S0
*1582 ANTENNA_c162_S1
*1583 ANTENNA_c162_X
*1584 ANTENNA_c163_A1
*1585 ANTENNA_c163_A2
*1586 ANTENNA_c163_A3
*1587 ANTENNA_c163_A4
*1588 ANTENNA_c163_B1
*1589 ANTENNA_c163_X
*1590 ANTENNA_c164_A1
*1591 ANTENNA_c164_A2
*1592 ANTENNA_c164_A3
*1593 ANTENNA_c164_A4
*1594 ANTENNA_c164_B1
*1595 ANTENNA_c165_A1
*1596 ANTENNA_c165_A3
*1597 ANTENNA_c165_A4
*1598 ANTENNA_c165_B1
*1599 ANTENNA_c165_X
*1600 ANTENNA_c166_A1
*1601 ANTENNA_c166_A2
*1602 ANTENNA_c166_A3
*1603 ANTENNA_c166_A4
*1604 ANTENNA_c166_B1
*1605 ANTENNA_c167_A4
*1606 ANTENNA_c167_B1
*1607 ANTENNA_c167_X
*1608 ANTENNA_c168_A1
*1609 ANTENNA_c168_A2
*1610 ANTENNA_c168_A4
*1611 ANTENNA_c168_B1
*1612 ANTENNA_c168_X
*1613 ANTENNA_c169_A0
*1614 ANTENNA_c169_A2
*1615 ANTENNA_c169_A3
*1616 ANTENNA_c169_S1
*1617 ANTENNA_c170_A2
*1618 ANTENNA_c170_A3
*1619 ANTENNA_c170_A4
*1620 ANTENNA_c170_X
*1621 ANTENNA_c171_A1
*1622 ANTENNA_c171_A3
*1623 ANTENNA_c171_A4
*1624 ANTENNA_c171_B1
*1625 ANTENNA_c171_X
*1626 ANTENNA_c172_A1
*1627 ANTENNA_c172_A2
*1628 ANTENNA_c172_A3
*1629 ANTENNA_c172_S1
*1630 ANTENNA_c172_X
*1631 ANTENNA_c173_A0
*1632 ANTENNA_c173_A1
*1633 ANTENNA_c173_A2
*1634 ANTENNA_c173_A3
*1635 ANTENNA_c173_S0
*1636 ANTENNA_c173_S1
*1637 ANTENNA_c173_X
*1638 ANTENNA_c174_A0
*1639 ANTENNA_c174_A1
*1640 ANTENNA_c174_A2
*1641 ANTENNA_c174_A3
*1642 ANTENNA_c174_S1
*1643 ANTENNA_c175_A0
*1644 ANTENNA_c175_A1
*1645 ANTENNA_c175_A3
*1646 ANTENNA_c175_S0
*1647 ANTENNA_c175_S1
*1648 ANTENNA_c175_X
*1649 ANTENNA_c176_A1
*1650 ANTENNA_c176_A2
*1651 ANTENNA_c176_A3
*1652 ANTENNA_c176_A4
*1653 ANTENNA_c176_B1
*1654 ANTENNA_c177_A2
*1655 ANTENNA_c177_B1_N
*1656 ANTENNA_c178_A2
*1657 ANTENNA_c178_B1_N
*1658 ANTENNA_c178_X
*1659 ANTENNA_c179_A1
*1660 ANTENNA_c179_A3
*1661 ANTENNA_c179_A4
*1662 ANTENNA_c179_B1
*1663 ANTENNA_c179_X
*1664 ANTENNA_c180_A1
*1665 ANTENNA_c180_A2
*1666 ANTENNA_c180_B1_N
*1667 ANTENNA_c181_A1
*1668 ANTENNA_c181_A2
*1669 ANTENNA_c181_A3
*1670 ANTENNA_c181_A4
*1671 ANTENNA_c181_B1
*1672 ANTENNA_c182_A1
*1673 ANTENNA_c182_A2
*1674 ANTENNA_c182_B1_N
*1675 ANTENNA_c182_X
*1676 ANTENNA_c183_A2
*1677 ANTENNA_c183_B1_N
*1678 ANTENNA_c184_A2
*1679 ANTENNA_c184_A3
*1680 ANTENNA_c184_A4
*1681 ANTENNA_c184_B1
*1682 ANTENNA_c185_A1
*1683 ANTENNA_c185_A2
*1684 ANTENNA_c185_A3
*1685 ANTENNA_c185_X
*1686 ANTENNA_c186_A1
*1687 ANTENNA_c186_A2
*1688 ANTENNA_c186_X
*1689 ANTENNA_c187_A1
*1690 ANTENNA_c187_A2
*1691 ANTENNA_c187_A3
*1692 ANTENNA_c187_A4
*1693 ANTENNA_c187_B1
*1694 ANTENNA_c188_A2
*1695 ANTENNA_c188_B1_N
*1696 ANTENNA_c189_A2
*1697 ANTENNA_c189_B1_N
*1698 ANTENNA_c190_X
*1699 ANTENNA_c191_A3
*1700 ANTENNA_c191_A4
*1701 ANTENNA_c191_B1
*1702 ANTENNA_c191_X
*1703 ANTENNA_c192_A1
*1704 ANTENNA_c192_A3
*1705 ANTENNA_c192_A4
*1706 ANTENNA_c192_B1
*1707 ANTENNA_c192_X
*1708 ANTENNA_c193_A1
*1709 ANTENNA_c193_A2
*1710 ANTENNA_c193_A4
*1711 ANTENNA_c194_B1
*1712 ANTENNA_c194_X
*1713 ANTENNA_c195_A2
*1714 ANTENNA_c195_B1_N
*1715 ANTENNA_c195_X
*1716 ANTENNA_c196_A2
*1717 ANTENNA_c196_A3
*1718 ANTENNA_c196_S1
*1719 ANTENNA_c196_X
*1720 ANTENNA_c197_S0
*1721 ANTENNA_c197_S1
*1722 ANTENNA_c197_X
*1723 ANTENNA_c198_A2
*1724 ANTENNA_c198_B1_N
*1725 ANTENNA_c199_A2
*1726 ANTENNA_c199_B1_N
*1727 ANTENNA_c199_X
*1728 ANTENNA_c200_A1
*1729 ANTENNA_c200_A2
*1730 ANTENNA_c200_B1_N
*1731 ANTENNA_c200_X
*1732 ANTENNA_c201_A2
*1733 ANTENNA_c201_B1_N
*1734 ANTENNA_c201_X
*1735 ANTENNA_c202_A1
*1736 ANTENNA_c202_A4
*1737 ANTENNA_c203_A4
*1738 ANTENNA_c203_B1
*1739 ANTENNA_c204_A1
*1740 ANTENNA_c204_A2
*1741 ANTENNA_c204_A3
*1742 ANTENNA_c204_B1
*1743 ANTENNA_c205_A1
*1744 ANTENNA_c205_B1_N
*1745 ANTENNA_c205_X
*1746 ANTENNA_c206_A1
*1747 ANTENNA_c206_A2
*1748 ANTENNA_c206_A3
*1749 ANTENNA_c206_B1
*1750 ANTENNA_c207_A1
*1751 ANTENNA_c207_A2
*1752 ANTENNA_c207_A3
*1753 ANTENNA_c207_S0
*1754 ANTENNA_c208_A1
*1755 ANTENNA_c208_A2
*1756 ANTENNA_c208_B1_N
*1757 ANTENNA_c209_A1
*1758 ANTENNA_c209_A2
*1759 ANTENNA_c209_B1_N
*1760 ANTENNA_c209_X
*1761 ANTENNA_c210_CLK_N
*1762 ANTENNA_c210_D
*1763 ANTENNA_c210_Q
*1764 ANTENNA_c210_Q_N
*1765 ANTENNA_c210_RESET_B
*1766 ANTENNA_c210_SCD
*1767 ANTENNA_c211_A0
*1768 ANTENNA_c211_A2
*1769 ANTENNA_c211_A3
*1770 ANTENNA_c211_S1
*1771 ANTENNA_c211_X
*1772 ANTENNA_c212_A1
*1773 ANTENNA_c212_A2
*1774 ANTENNA_c212_A3
*1775 ANTENNA_c212_A4
*1776 ANTENNA_c212_B1
*1777 ANTENNA_c213_A1
*1778 ANTENNA_c213_S1
*1779 ANTENNA_c213_X
*1780 ANTENNA_c214_A2
*1781 ANTENNA_c214_S0
*1782 ANTENNA_c214_S1
*1783 ANTENNA_c215_A2
*1784 ANTENNA_c215_A3
*1785 ANTENNA_c215_S0
*1786 ANTENNA_c216_A1
*1787 ANTENNA_c216_A2
*1788 ANTENNA_c216_A3
*1789 ANTENNA_c217_A1
*1790 ANTENNA_c217_A2
*1791 ANTENNA_c217_S0
*1792 ANTENNA_c218_A1
*1793 ANTENNA_c218_A2
*1794 ANTENNA_c218_A3
*1795 ANTENNA_c218_S0
*1796 ANTENNA_c219_A1
*1797 ANTENNA_c219_A2
*1798 ANTENNA_c219_A3
*1799 ANTENNA_c219_S1
*1800 ANTENNA_c220_A1
*1801 ANTENNA_c220_A2
*1802 ANTENNA_c220_A3
*1803 ANTENNA_c220_A4
*1804 ANTENNA_c220_B1
*1805 ANTENNA_c220_X
*1806 ANTENNA_c221_CLK
*1807 ANTENNA_c221_Q
*1808 ANTENNA_c221_Q_N
*1809 ANTENNA_c221_RESET_B
*1810 ANTENNA_c221_SCD
*1811 ANTENNA_c221_SCE
*1812 ANTENNA_c222_A1
*1813 ANTENNA_c222_A2
*1814 ANTENNA_c222_A3
*1815 ANTENNA_c222_A4
*1816 ANTENNA_c223_RESET_B
*1817 ANTENNA_c223_SCD
*1818 ANTENNA_c223_SCE
*1819 ANTENNA_c223_SET_B
*1820 ANTENNA_c224_A1
*1821 ANTENNA_c224_A2
*1822 ANTENNA_c224_A3
*1823 ANTENNA_c224_S0
*1824 ANTENNA_c225_A1
*1825 ANTENNA_c225_A3
*1826 ANTENNA_c225_X
*1827 ANTENNA_c226_A2
*1828 ANTENNA_c226_A3
*1829 ANTENNA_c226_S0
*1830 ANTENNA_c227_A1
*1831 ANTENNA_c227_A2
*1832 ANTENNA_c227_A3
*1833 ANTENNA_c227_S0
*1834 ANTENNA_c228_A1
*1835 ANTENNA_c228_A2
*1836 ANTENNA_c228_A3
*1837 ANTENNA_c228_S0
*1838 ANTENNA_c229_A2
*1839 ANTENNA_c229_A3
*1840 ANTENNA_c229_S0
*1841 ANTENNA_c229_S1
*1842 ANTENNA_c230_A1
*1843 ANTENNA_c230_A2
*1844 ANTENNA_c231_A0
*1845 ANTENNA_c231_A1
*1846 ANTENNA_c231_A2
*1847 ANTENNA_c231_A3
*1848 ANTENNA_c231_S0
*1849 ANTENNA_c231_S1
*1850 ANTENNA_c232_A3
*1851 ANTENNA_c232_A4
*1852 ANTENNA_c233_Q
*1853 ANTENNA_c233_Q_N
*1854 ANTENNA_c233_RESET_B
*1855 ANTENNA_c233_SCD
*1856 ANTENNA_c233_SCE
*1857 ANTENNA_c234_A3
*1858 ANTENNA_c234_A4
*1859 ANTENNA_c234_B1
*1860 ANTENNA_c235_A1
*1861 ANTENNA_c235_A2
*1862 ANTENNA_c235_S0
*1863 ANTENNA_c235_S1
*1864 ANTENNA_c236_A1
*1865 ANTENNA_c236_A2
*1866 ANTENNA_c236_S0
*1867 ANTENNA_c236_X
*1868 ANTENNA_c237_A0
*1869 ANTENNA_c237_A2
*1870 ANTENNA_c237_S0
*1871 ANTENNA_c237_S1
*1872 ANTENNA_c238_A1