*SPEF "ieee 1481-1999"
*DESIGN "netlist_0"
*DATE "23:02:14 Saturday August 17, 2024"
*VENDOR "The OpenROAD Project"
*PROGRAM "OpenROAD"
*VERSION "d423155d69de7f683a23f6916ead418a615ad4ad"
*DESIGN_FLOW "NAME_SCOPE LOCAL" "PIN_CAP NONE"
*DIVIDER /
*DELIMITER :
*BUS_DELIMITER []
*T_UNIT 1 NS
*C_UNIT 1 PF
*R_UNIT 1 OHM
*L_UNIT 1 HENRY

*NAME_MAP
*3 clk
*4 in0
*5 in1
*6 in10
*7 in11
*8 in12
*9 in13
*10 in14
*11 in15
*12 in16
*13 in17
*14 in18
*15 in19
*16 in2
*17 in20
*18 in21
*19 in22
*20 in23
*21 in24
*22 in3
*23 in4
*24 in5
*25 in6
*26 in7
*27 in8
*28 in9
*29 out0
*30 out1
*31 out10
*32 out11
*33 out12
*34 out13
*35 out14
*36 out15
*37 out16
*38 out17
*39 out18
*40 out19
*41 out2
*42 out20
*43 out21
*44 out22
*45 out23
*46 out24
*47 out3
*48 out4
*49 out5
*50 out6
*51 out7
*52 out8
*53 out9
*54 rst
*55 clknet_0_clk
*56 clknet_0_net135
*57 clknet_0_net138
*58 clknet_0_net157
*59 clknet_0_net164
*60 clknet_0_net178
*61 clknet_0_net196
*62 clknet_0_net255
*63 clknet_0_net260
*64 clknet_0_net301
*65 clknet_0_net302
*66 clknet_0_net307
*67 clknet_0_net310
*68 clknet_0_net321
*69 clknet_0_net33
*70 clknet_0_net413
*71 clknet_0_net414
*72 clknet_0_net415
*73 clknet_0_net419
*74 clknet_0_net421
*75 clknet_0_net439
*76 clknet_0_net440
*77 clknet_0_net441
*78 clknet_0_net445
*79 clknet_0_net448
*80 clknet_0_net514
*81 clknet_0_net515
*82 clknet_0_net516
*83 clknet_0_net523
*84 clknet_0_net525
*85 clknet_0_net528
*86 clknet_0_net532
*87 clknet_0_net574
*88 clknet_0_net585
*89 clknet_0_net652
*90 clknet_0_net655
*91 clknet_0_net657
*92 clknet_0_net660
*93 clknet_0_net666
*94 clknet_0_net686
*95 clknet_0_net745
*96 clknet_0_net759
*97 clknet_0_net794
*98 clknet_0_net898
*99 clknet_0_net901
*100 clknet_0_net922
*101 clknet_0_net923
*102 clknet_0_net924
*103 clknet_0_net943
*104 clknet_0_net944
*105 clknet_0_net945
*106 clknet_1_0__leaf_net135
*107 clknet_1_0__leaf_net138
*108 clknet_1_0__leaf_net157
*109 clknet_1_0__leaf_net164
*110 clknet_1_0__leaf_net178
*111 clknet_1_0__leaf_net196
*112 clknet_1_0__leaf_net255
*113 clknet_1_0__leaf_net260
*114 clknet_1_0__leaf_net301
*115 clknet_1_0__leaf_net302
*116 clknet_1_0__leaf_net307
*117 clknet_1_0__leaf_net310
*118 clknet_1_0__leaf_net321
*119 clknet_1_0__leaf_net33
*120 clknet_1_0__leaf_net413
*121 clknet_1_0__leaf_net414
*122 clknet_1_0__leaf_net415
*123 clknet_1_0__leaf_net419
*124 clknet_1_0__leaf_net421
*125 clknet_1_0__leaf_net439
*126 clknet_1_0__leaf_net440
*127 clknet_1_0__leaf_net441
*128 clknet_1_0__leaf_net445
*129 clknet_1_0__leaf_net448
*130 clknet_1_0__leaf_net514
*131 clknet_1_0__leaf_net515
*132 clknet_1_0__leaf_net516
*133 clknet_1_0__leaf_net523
*134 clknet_1_0__leaf_net525
*135 clknet_1_0__leaf_net528
*136 clknet_1_0__leaf_net532
*137 clknet_1_0__leaf_net574
*138 clknet_1_0__leaf_net585
*139 clknet_1_0__leaf_net652
*140 clknet_1_0__leaf_net655
*141 clknet_1_0__leaf_net657
*142 clknet_1_0__leaf_net660
*143 clknet_1_0__leaf_net666
*144 clknet_1_0__leaf_net686
*145 clknet_1_0__leaf_net745
*146 clknet_1_0__leaf_net759
*147 clknet_1_0__leaf_net794
*148 clknet_1_0__leaf_net898
*149 clknet_1_0__leaf_net901
*150 clknet_1_0__leaf_net922
*151 clknet_1_0__leaf_net923
*152 clknet_1_0__leaf_net924
*153 clknet_1_0__leaf_net943
*154 clknet_1_0__leaf_net944
*155 clknet_1_0__leaf_net945
*156 clknet_1_1__leaf_net135
*157 clknet_1_1__leaf_net138
*158 clknet_1_1__leaf_net157
*159 clknet_1_1__leaf_net164
*160 clknet_1_1__leaf_net178
*161 clknet_1_1__leaf_net196
*162 clknet_1_1__leaf_net255
*163 clknet_1_1__leaf_net260
*164 clknet_1_1__leaf_net301
*165 clknet_1_1__leaf_net302
*166 clknet_1_1__leaf_net307
*167 clknet_1_1__leaf_net310
*168 clknet_1_1__leaf_net321
*169 clknet_1_1__leaf_net33
*170 clknet_1_1__leaf_net413
*171 clknet_1_1__leaf_net414
*172 clknet_1_1__leaf_net415
*173 clknet_1_1__leaf_net419
*174 clknet_1_1__leaf_net421
*175 clknet_1_1__leaf_net439
*176 clknet_1_1__leaf_net440
*177 clknet_1_1__leaf_net441
*178 clknet_1_1__leaf_net445
*179 clknet_1_1__leaf_net448
*180 clknet_1_1__leaf_net514
*181 clknet_1_1__leaf_net515
*182 clknet_1_1__leaf_net516
*183 clknet_1_1__leaf_net523
*184 clknet_1_1__leaf_net525
*185 clknet_1_1__leaf_net528
*186 clknet_1_1__leaf_net532
*187 clknet_1_1__leaf_net574
*188 clknet_1_1__leaf_net585
*189 clknet_1_1__leaf_net652
*190 clknet_1_1__leaf_net655
*191 clknet_1_1__leaf_net657
*192 clknet_1_1__leaf_net660
*193 clknet_1_1__leaf_net666
*194 clknet_1_1__leaf_net686
*195 clknet_1_1__leaf_net745
*196 clknet_1_1__leaf_net759
*197 clknet_1_1__leaf_net794
*198 clknet_1_1__leaf_net898
*199 clknet_1_1__leaf_net901
*200 clknet_1_1__leaf_net922
*201 clknet_1_1__leaf_net923
*202 clknet_1_1__leaf_net924
*203 clknet_1_1__leaf_net943
*204 clknet_1_1__leaf_net944
*205 clknet_1_1__leaf_net945
*206 clknet_4_0_0_clk
*207 clknet_4_10_0_clk
*208 clknet_4_11_0_clk
*209 clknet_4_12_0_clk
*210 clknet_4_13_0_clk
*211 clknet_4_14_0_clk
*212 clknet_4_15_0_clk
*213 clknet_4_1_0_clk
*214 clknet_4_2_0_clk
*215 clknet_4_3_0_clk
*216 clknet_4_4_0_clk
*217 clknet_4_5_0_clk
*218 clknet_4_6_0_clk
*219 clknet_4_7_0_clk
*220 clknet_4_8_0_clk
*221 clknet_4_9_0_clk
*222 net0
*223 net1
*224 net10
*225 net100
*226 net1000
*227 net1001
*228 net1003
*229 net1004
*230 net1005
*231 net1006
*232 net1007
*233 net1008
*234 net1009
*235 net101
*236 net1010
*237 net1011
*238 net1012
*239 net1013
*240 net1014
*241 net1015
*242 net1016
*243 net1017
*244 net1018
*245 net1019
*246 net102
*247 net1020
*248 net1021
*249 net1022
*250 net1023
*251 net1024
*252 net1025
*253 net1026
*254 net1027
*255 net1028
*256 net1029
*257 net103
*258 net1030
*259 net1031
*260 net1032
*261 net1033
*262 net1034
*263 net1035
*264 net1036
*265 net1037
*266 net1038
*267 net1039
*268 net104
*269 net1040
*270 net1041
*271 net1042
*272 net1043
*273 net1044
*274 net1045
*275 net1046
*276 net1047
*277 net1048
*278 net105
*279 net1050
*280 net1051
*281 net1052
*282 net1053
*283 net1054
*284 net1055
*285 net1056
*286 net1057
*287 net1058
*288 net1059
*289 net106
*290 net1061
*291 net1062
*292 net107
*293 net108
*294 net109
*295 net11
*296 net110
*297 net111
*298 net112
*299 net113
*300 net114
*301 net115
*302 net116
*303 net117
*304 net118
*305 net119
*306 net12
*307 net120
*308 net121
*309 net122
*310 net123
*311 net124
*312 net125
*313 net126
*314 net127
*315 net128
*316 net129
*317 net13
*318 net130
*319 net131
*320 net132
*321 net133
*322 net134
*323 net135
*324 net136
*325 net137
*326 net138
*327 net139
*328 net14
*329 net140
*330 net141
*331 net142
*332 net143
*333 net144
*334 net145
*335 net146
*336 net147
*337 net148
*338 net149
*339 net15
*340 net150
*341 net151
*342 net152
*343 net153
*344 net154
*345 net155
*346 net156
*347 net157
*348 net158
*349 net159
*350 net16
*351 net160
*352 net161
*353 net162
*354 net163
*355 net164
*356 net165
*357 net166
*358 net167
*359 net168
*360 net169
*361 net17
*362 net170
*363 net171
*364 net172
*365 net173
*366 net174
*367 net175
*368 net176
*369 net177
*370 net178
*371 net179
*372 net18
*373 net180
*374 net181
*375 net182
*376 net183
*377 net184
*378 net185
*379 net186
*380 net187
*381 net188
*382 net189
*383 net19
*384 net190
*385 net191
*386 net192
*387 net193
*388 net194
*389 net195
*390 net196
*391 net197
*392 net198
*393 net199
*394 net2
*395 net20
*396 net200
*397 net201
*398 net202
*399 net203
*400 net204
*401 net205
*402 net206
*403 net207
*404 net208
*405 net209
*406 net21
*407 net210
*408 net211
*409 net212
*410 net213
*411 net214
*412 net215
*413 net216
*414 net217
*415 net218
*416 net219
*417 net22
*418 net220
*419 net221
*420 net222
*421 net223
*422 net224
*423 net225
*424 net226
*425 net227
*426 net228
*427 net229
*428 net23
*429 net230
*430 net231
*431 net232
*432 net233
*433 net234
*434 net235
*435 net236
*436 net237
*437 net238
*438 net239
*439 net24
*440 net240
*441 net241
*442 net242
*443 net243
*444 net244
*445 net245
*446 net246
*447 net247
*448 net248
*449 net249
*450 net25
*451 net250
*452 net251
*453 net252
*454 net253
*455 net254
*456 net255
*457 net256
*458 net257
*459 net258
*460 net259
*461 net26
*462 net260
*463 net261
*464 net262
*465 net263
*466 net264
*467 net265
*468 net266
*469 net267
*470 net268
*471 net269
*472 net27
*473 net270
*474 net271
*475 net272
*476 net273
*477 net274
*478 net275
*479 net276
*480 net277
*481 net278
*482 net279
*483 net28
*484 net280
*485 net281
*486 net282
*487 net283
*488 net284
*489 net285
*490 net286
*491 net287
*492 net288
*493 net289
*494 net29
*495 net290
*496 net291
*497 net292
*498 net293
*499 net294
*500 net295
*501 net296
*502 net297
*503 net298
*504 net299
*505 net3
*506 net30
*507 net300
*508 net301
*509 net302
*510 net303
*511 net304
*512 net305
*513 net306
*514 net307
*515 net308
*516 net309
*517 net31
*518 net310
*519 net311
*520 net312
*521 net313
*522 net314
*523 net315
*524 net316
*525 net317
*526 net318
*527 net319
*528 net32
*529 net320
*530 net321
*531 net322
*532 net323
*533 net324
*534 net325
*535 net326
*536 net327
*537 net328
*538 net329
*539 net33
*540 net330
*541 net331
*542 net332
*543 net333
*544 net334
*545 net335
*546 net336
*547 net337
*548 net338
*549 net339
*550 net34
*551 net340
*552 net341
*553 net342
*554 net343
*555 net344
*556 net345
*557 net346
*558 net347
*559 net348
*560 net349
*561 net35
*562 net350
*563 net351
*564 net352
*565 net353
*566 net354
*567 net355
*568 net356
*569 net357
*570 net358
*571 net359
*572 net36
*573 net360
*574 net361
*575 net362
*576 net363
*577 net364
*578 net365
*579 net366
*580 net367
*581 net368
*582 net369
*583 net37
*584 net370
*585 net371
*586 net372
*587 net373
*588 net374
*589 net375
*590 net376
*591 net377
*592 net378
*593 net379
*594 net38
*595 net380
*596 net381
*597 net382
*598 net383
*599 net384
*600 net385
*601 net386
*602 net387
*603 net388
*604 net389
*605 net39
*606 net390
*607 net391
*608 net392
*609 net393
*610 net394
*611 net395
*612 net396
*613 net397
*614 net398
*615 net399
*616 net4
*617 net40
*618 net400
*619 net401
*620 net402
*621 net403
*622 net404
*623 net405
*624 net406
*625 net407
*626 net408
*627 net409
*628 net41
*629 net410
*630 net411
*631 net412
*632 net413
*633 net414
*634 net415
*635 net416
*636 net417
*637 net418
*638 net419
*639 net42
*640 net420
*641 net421
*642 net422
*643 net423
*644 net424
*645 net425
*646 net426
*647 net427
*648 net428
*649 net429
*650 net43
*651 net430
*652 net431
*653 net432
*654 net433
*655 net434
*656 net435
*657 net436
*658 net437
*659 net438
*660 net439
*661 net44
*662 net440
*663 net441
*664 net442
*665 net443
*666 net444
*667 net445
*668 net446
*669 net447
*670 net448
*671 net449
*672 net45
*673 net450
*674 net451
*675 net452
*676 net453
*677 net454
*678 net455
*679 net456
*680 net457
*681 net458
*682 net459
*683 net46
*684 net460
*685 net461
*686 net462
*687 net463
*688 net464
*689 net465
*690 net466
*691 net467
*692 net468
*693 net469
*694 net47
*695 net470
*696 net471
*697 net472
*698 net473
*699 net474
*700 net475
*701 net476
*702 net477
*703 net478
*704 net479
*705 net48
*706 net480
*707 net481
*708 net482
*709 net483
*710 net484
*711 net485
*712 net486
*713 net487
*714 net488
*715 net489
*716 net49
*717 net490
*718 net491
*719 net492
*720 net493
*721 net494
*722 net495
*723 net496
*724 net497
*725 net498
*726 net499
*727 net5
*728 net50
*729 net500
*730 net501
*731 net502
*732 net503
*733 net504
*734 net505
*735 net506
*736 net507
*737 net508
*738 net509
*739 net51
*740 net510
*741 net511
*742 net512
*743 net513
*744 net514
*745 net515
*746 net516
*747 net517
*748 net518
*749 net519
*750 net52
*751 net520
*752 net521
*753 net522
*754 net523
*755 net524
*756 net525
*757 net526
*758 net527
*759 net528
*760 net529
*761 net53
*762 net530
*763 net531
*764 net532
*765 net533
*766 net534
*767 net535
*768 net536
*769 net537
*770 net538
*771 net539
*772 net54
*773 net540
*774 net541
*775 net542
*776 net543
*777 net544
*778 net545
*779 net546
*780 net547
*781 net548
*782 net549
*783 net55
*784 net550
*785 net551
*786 net552
*787 net553
*788 net554
*789 net555
*790 net556
*791 net557
*792 net558
*793 net559
*794 net56
*795 net560
*796 net561
*797 net562
*798 net563
*799 net564
*800 net565
*801 net566
*802 net567
*803 net568
*804 net569
*805 net57
*806 net570
*807 net571
*808 net572
*809 net573
*810 net574
*811 net575
*812 net576
*813 net577
*814 net578
*815 net579
*816 net58
*817 net580
*818 net581
*819 net582
*820 net583
*821 net584
*822 net585
*823 net586
*824 net587
*825 net588
*826 net589
*827 net59
*828 net590
*829 net591
*830 net592
*831 net593
*832 net594
*833 net595
*834 net596
*835 net597
*836 net598
*837 net599
*838 net6
*839 net60
*840 net600
*841 net601
*842 net602
*843 net603
*844 net604
*845 net605
*846 net606
*847 net607
*848 net608
*849 net609
*850 net61
*851 net610
*852 net611
*853 net612
*854 net613
*855 net614
*856 net615
*857 net616
*858 net617
*859 net618
*860 net619
*861 net62
*862 net620
*863 net621
*864 net622
*865 net623
*866 net624
*867 net625
*868 net626
*869 net627
*870 net628
*871 net629
*872 net63
*873 net630
*874 net631
*875 net632
*876 net633
*877 net634
*878 net635
*879 net636
*880 net637
*881 net638
*882 net639
*883 net64
*884 net640
*885 net641
*886 net642
*887 net643
*888 net644
*889 net645
*890 net646
*891 net647
*892 net648
*893 net649
*894 net65
*895 net650
*896 net651
*897 net652
*898 net653
*899 net654
*900 net655
*901 net656
*902 net657
*903 net658
*904 net659
*905 net66
*906 net660
*907 net661
*908 net662
*909 net663
*910 net664
*911 net665
*912 net666
*913 net667
*914 net668
*915 net669
*916 net67
*917 net670
*918 net671
*919 net672
*920 net673
*921 net674
*922 net675
*923 net676
*924 net677
*925 net678
*926 net679
*927 net68
*928 net680
*929 net681
*930 net682
*931 net683
*932 net684
*933 net685
*934 net686
*935 net687
*936 net688
*937 net689
*938 net69
*939 net690
*940 net691
*941 net692
*942 net693
*943 net694
*944 net695
*945 net696
*946 net697
*947 net698
*948 net699
*949 net7
*950 net70
*951 net700
*952 net701
*953 net702
*954 net703
*955 net704
*956 net705
*957 net706
*958 net707
*959 net708
*960 net709
*961 net71
*962 net710
*963 net711
*964 net712
*965 net713
*966 net714
*967 net715
*968 net716
*969 net717
*970 net718
*971 net719
*972 net72
*973 net720
*974 net721
*975 net722
*976 net723
*977 net724
*978 net725
*979 net726
*980 net727
*981 net728
*982 net729
*983 net73
*984 net730
*985 net731
*986 net732
*987 net733
*988 net734
*989 net735
*990 net736
*991 net737
*992 net738
*993 net739
*994 net74
*995 net740
*996 net741
*997 net742
*998 net743
*999 net744
*1000 net745
*1001 net746
*1002 net747
*1003 net748
*1004 net749
*1005 net75
*1006 net750
*1007 net751
*1008 net752
*1009 net753
*1010 net754
*1011 net755
*1012 net756
*1013 net757
*1014 net758
*1015 net759
*1016 net76
*1017 net760
*1018 net761
*1019 net762
*1020 net763
*1021 net764
*1022 net765
*1023 net766
*1024 net767
*1025 net768
*1026 net769
*1027 net77
*1028 net770
*1029 net771
*1030 net772
*1031 net773
*1032 net774
*1033 net775
*1034 net776
*1035 net777
*1036 net778
*1037 net779
*1038 net78
*1039 net780
*1040 net781
*1041 net782
*1042 net783
*1043 net784
*1044 net785
*1045 net786
*1046 net787
*1047 net788
*1048 net789
*1049 net79
*1050 net790
*1051 net791
*1052 net792
*1053 net793
*1054 net794
*1055 net795
*1056 net796
*1057 net797
*1058 net798
*1059 net799
*1060 net8
*1061 net80
*1062 net800
*1063 net801
*1064 net802
*1065 net803
*1066 net804
*1067 net805
*1068 net806
*1069 net807
*1070 net808
*1071 net809
*1072 net81
*1073 net810
*1074 net811
*1075 net812
*1076 net813
*1077 net814
*1078 net815
*1079 net816
*1080 net817
*1081 net818
*1082 net819
*1083 net82
*1084 net820
*1085 net821
*1086 net822
*1087 net823
*1088 net824
*1089 net825
*1090 net826
*1091 net827
*1092 net828
*1093 net829
*1094 net83
*1095 net830
*1096 net831
*1097 net832
*1098 net833
*1099 net834
*1100 net835
*1101 net836
*1102 net837
*1103 net838
*1104 net839
*1105 net84
*1106 net840
*1107 net841
*1108 net842
*1109 net843
*1110 net844
*1111 net845
*1112 net846
*1113 net847
*1114 net848
*1115 net849
*1116 net85
*1117 net850
*1118 net851
*1119 net852
*1120 net853
*1121 net854
*1122 net855
*1123 net856
*1124 net857
*1125 net858
*1126 net859
*1127 net86
*1128 net860
*1129 net861
*1130 net862
*1131 net863
*1132 net864
*1133 net865
*1134 net866
*1135 net867
*1136 net868
*1137 net869
*1138 net87
*1139 net870
*1140 net871
*1141 net872
*1142 net873
*1143 net874
*1144 net875
*1145 net876
*1146 net877
*1147 net878
*1148 net879
*1149 net88
*1150 net880
*1151 net881
*1152 net882
*1153 net883
*1154 net884
*1155 net885
*1156 net886
*1157 net887
*1158 net888
*1159 net889
*1160 net89
*1161 net890
*1162 net891
*1163 net892
*1164 net893
*1165 net894
*1166 net895
*1167 net896
*1168 net897
*1169 net898
*1170 net899
*1171 net9
*1172 net90
*1173 net900
*1174 net901
*1175 net902
*1176 net903
*1177 net904
*1178 net905
*1179 net906
*1180 net907
*1181 net908
*1182 net909
*1183 net91
*1184 net910
*1185 net911
*1186 net912
*1187 net913
*1188 net914
*1189 net915
*1190 net916
*1191 net917
*1192 net918
*1193 net919
*1194 net92
*1195 net920
*1196 net921
*1197 net922
*1198 net923
*1199 net924
*1200 net925
*1201 net926
*1202 net927
*1203 net928
*1204 net929
*1205 net93
*1206 net930
*1207 net931
*1208 net932
*1209 net933
*1210 net934
*1211 net935
*1212 net936
*1213 net937
*1214 net938
*1215 net939
*1216 net94
*1217 net940
*1218 net941
*1219 net942
*1220 net943
*1221 net944
*1222 net945
*1223 net946
*1224 net947
*1225 net948
*1226 net949
*1227 net95
*1228 net950
*1229 net951
*1230 net952
*1231 net953
*1232 net954
*1233 net955
*1234 net956
*1235 net957
*1236 net958
*1237 net959
*1238 net96
*1239 net960
*1240 net961
*1241 net962
*1242 net963
*1243 net964
*1244 net965
*1245 net966
*1246 net967
*1247 net968
*1248 net969
*1249 net97
*1250 net970
*1251 net971
*1252 net972
*1253 net973
*1254 net974
*1255 net975
*1256 net976
*1257 net977
*1258 net978
*1259 net979
*1260 net98
*1261 net980
*1262 net981
*1263 net982
*1264 net983
*1265 net984
*1266 net985
*1267 net986
*1268 net987
*1269 net988
*1270 net989
*1271 net99
*1272 net990
*1273 net991
*1274 net992
*1275 net993
*1276 net994
*1277 net995
*1278 net996
*1279 net997
*1280 net998
*1281 net999
*1282 ANTENNA_1
*1283 ANTENNA_c141_X
*1284 ANTENNA_c142_Y
*1285 ANTENNA_c144_X
*1286 ANTENNA_c146_A3
*1287 ANTENNA_c147_Y
*1288 ANTENNA_c153_X
*1289 ANTENNA_c156_B
*1290 ANTENNA_c164_Y
*1291 ANTENNA_c166_A
*1292 ANTENNA_c170_B1_N
*1293 ANTENNA_c172_B1
*1294 ANTENNA_c175_B1
*1295 ANTENNA_c178_A
*1296 ANTENNA_c181_A
*1297 ANTENNA_c183_B
*1298 ANTENNA_c197_X
*1299 ANTENNA_c204_B
*1300 ANTENNA_c218_CLK
*1301 ANTENNA_c224_Y
*1302 ANTENNA_c229_CLK_N
*1303 ANTENNA_c229_SET_B
*1304 ANTENNA_c230_X
*1305 ANTENNA_c231_CLK
*1306 ANTENNA_c231_D
*1307 ANTENNA_c231_RESET_B
*1308 ANTENNA_c232_X
*1309 ANTENNA_c233_CLK
*1310 ANTENNA_c233_D
*1311 ANTENNA_c233_SCD
*1312 ANTENNA_c237_A2
*1313 ANTENNA_c238_CLK
*1314 ANTENNA_c241_CLK
*1315 ANTENNA_c247_CLK
*1316 ANTENNA_c248_CLK
*1317 ANTENNA_c252_CLK_N
*1318 ANTENNA_c265_A
*1319 ANTENNA_c266_X
*1320 ANTENNA_c267_A
*1321 ANTENNA_c271_A1
*1322 ANTENNA_c279_CLK_N
*1323 ANTENNA_c280_SCE
*1324 ANTENNA_c281_CLK_N
*1325 ANTENNA_c282_B1
*1326 ANTENNA_c283_CLK
*1327 ANTENNA_c285_CLK_N
*1328 ANTENNA_c288_B
*1329 ANTENNA_c297_Y
*1330 ANTENNA_c299_A2
*1331 ANTENNA_c301_CLK
*1332 ANTENNA_c303_CLK
*1333 ANTENNA_c303_SCE
*1334 ANTENNA_c308_A
*1335 ANTENNA_c325_Q
*1336 ANTENNA_c327_A2
*1337 ANTENNA_c328_B1
*1338 ANTENNA_c329_A2
*1339 ANTENNA_c331_X
*1340 ANTENNA_c332_Y
*1341 ANTENNA_c333_A
*1342 ANTENNA_c337_B
*1343 ANTENNA_c339_X
*1344 ANTENNA_c341_B
*1345 ANTENNA_c343_A2
*1346 ANTENNA_c343_B1_N
*1347 ANTENNA_c343_X
*1348 ANTENNA_c344_B
*1349 ANTENNA_c348_B1_N
*1350 ANTENNA_c349_S0
*1351 ANTENNA_c349_S1
*1352 ANTENNA_c351_X
*1353 ANTENNA_c354_A
*1354 ANTENNA_c358_B
*1355 ANTENNA_c360_B
*1356 ANTENNA_c367_CLK
*1357 ANTENNA_c36_CLK_N
*1358 ANTENNA_c371_CLK
*1359 ANTENNA_c373_CLK_N
*1360 ANTENNA_c376_Y
*1361 ANTENNA_c380_CLK_N
*1362 ANTENNA_c382_A1
*1363 ANTENNA_c385_CLK_N
*1364 ANTENNA_c387_CLK
*1365 ANTENNA_c390_CLK
*1366 ANTENNA_c395_CLK
*1367 ANTENNA_c396_B
*1368 ANTENNA_c396_Y
*1369 ANTENNA_c397_A
*1370 ANTENNA_c398_A
*1371 ANTENNA_c398_B
*1372 ANTENNA_c399_A
*1373 ANTENNA_c400_X
*1374 ANTENNA_c401_A1
*1375 ANTENNA_c404_Y
*1376 ANTENNA_c406_Y
*1377 ANTENNA_c409_A1
*1378 ANTENNA_c409_A2
*1379 ANTENNA_c410_A4
*1380 ANTENNA_c410_B1
*1381 ANTENNA_c412_A2
*1382 ANTENNA_c413_CLK
*1383 ANTENNA_c413_RESET_B
*1384 ANTENNA_c413_SET_B
*1385 ANTENNA_c414_A1
*1386 ANTENNA_c414_S0
*1387 ANTENNA_c415_CLK
*1388 ANTENNA_c42_S1
*1389 ANTENNA_c43_CLK_N
*1390 ANTENNA_c43_SET_B
*1391 ANTENNA_c441_B
*1392 ANTENNA_c461_S1
*1393 ANTENNA_c462_A
*1394 ANTENNA_c474_B1
*1395 ANTENNA_c477_X
*1396 ANTENNA_c479_A
*1397 ANTENNA_c479_B
*1398 ANTENNA_c47_X
*1399 ANTENNA_c480_A3
*1400 ANTENNA_c481_CLK_N
*1401 ANTENNA_c481_SCD
*1402 ANTENNA_c483_S0
*1403 ANTENNA_c489_Y
*1404 ANTENNA_c505_CLK
*1405 ANTENNA_c505_Q
*1406 ANTENNA_c505_Q_N
*1407 ANTENNA_c509_B
*1408 ANTENNA_c517_B1_N
*1409 ANTENNA_c522_A
*1410 ANTENNA_c524_CLK
*1411 ANTENNA_c527_A1
*1412 ANTENNA_c527_A4
*1413 ANTENNA_c52_B
*1414 ANTENNA_c534_B
*1415 ANTENNA_c540_CLK
*1416 ANTENNA_c543_B1
*1417 ANTENNA_c545_A4
*1418 ANTENNA_c546_A4
*1419 ANTENNA_c547_CLK
*1420 ANTENNA_c547_SET_B
*1421 ANTENNA_c549_S0
*1422 ANTENNA_c553_A
*1423 ANTENNA_c556_CLK
*1424 ANTENNA_c561_CLK
*1425 ANTENNA_c562_A3
*1426 ANTENNA_c564_CLK_N
*1427 ANTENNA_c571_B1
*1428 ANTENNA_c572_X
*1429 ANTENNA_c579_Y
*1430 ANTENNA_c57_S0
*1431 ANTENNA_c586_B
*1432 ANTENNA_c58_CLK_N
*1433 ANTENNA_c58_Q_N
*1434 ANTENNA_c592_B1
*1435 ANTENNA_c594_B
*1436 ANTENNA_c59_A3
*1437 ANTENNA_c602_A
*1438 ANTENNA_c608_CLK
*1439 ANTENNA_c615_SET_B
*1440 ANTENNA_c616_B
*1441 ANTENNA_c627_A
*1442 ANTENNA_c634_X
*1443 ANTENNA_c636_S1
*1444 ANTENNA_c637_A2
*1445 ANTENNA_c660_A
*1446 ANTENNA_c661_B
*1447 ANTENNA_c670_CLK
*1448 ANTENNA_c673_Y
*1449 ANTENNA_c674_B1_N
*1450 ANTENNA_c674_X
*1451 ANTENNA_c675_X
*1452 ANTENNA_c676_A0
*1453 ANTENNA_c676_A3
*1454 ANTENNA_c677_A2
*1455 ANTENNA_c677_A3
*1456 ANTENNA_c678_A0
*1457 ANTENNA_c678_A2
*1458 ANTENNA_c679_A1
*1459 ANTENNA_c679_A3
*1460 ANTENNA_c680_CLK
*1461 ANTENNA_c680_SCD
*1462 ANTENNA_c682_B
*1463 ANTENNA_c683_CLK
*1464 ANTENNA_c685_B
*1465 ANTENNA_c689_CLK
*1466 ANTENNA_c68_X
*1467 ANTENNA_c691_Y
*1468 ANTENNA_c694_CLK
*1469 ANTENNA_c694_SET_B
*1470 ANTENNA_c700_A2
*1471 ANTENNA_c704_X
*1472 ANTENNA_c706_B
*1473 ANTENNA_c708_B
*1474 ANTENNA_c709_A
*1475 ANTENNA_c710_A
*1476 ANTENNA_c711_X
*1477 ANTENNA_c712_B
*1478 ANTENNA_c713_B
*1479 ANTENNA_c714_B
*1480 ANTENNA_c720_B
*1481 ANTENNA_c721_A2
*1482 ANTENNA_c732_B
*1483 ANTENNA_c736_CLK
*1484 ANTENNA_c737_A
*1485 ANTENNA_c738_CLK_N
*1486 ANTENNA_c738_SET_B
*1487 ANTENNA_c739_CLK_N
*1488 ANTENNA_c743_A4
*1489 ANTENNA_c750_CLK
*1490 ANTENNA_c750_D
*1491 ANTENNA_c750_SET_B
*1492 ANTENNA_c751_CLK
*1493 ANTENNA_c752_A2
*1494 ANTENNA_c754_D
*1495 ANTENNA_c79_CLK
*1496 ANTENNA_c79_D
*1497 ANTENNA_c81_CLK
*1498 ANTENNA_c88_A
*1499 ANTENNA_clkbuf_0_clk_A
*1500 ANTENNA_clkbuf_0_clk_X
*1501 ANTENNA_clkbuf_0_net922_A
*1502 ANTENNA_clkbuf_1_0__f_net321_X
*1503 ANTENNA_clkbuf_1_0__f_net923_X
*1504 ANTENNA_clkbuf_1_1__f_net923_X
*1505 ANTENNA_clkbuf_4_0_0_clk_A
*1506 ANTENNA_clkbuf_4_0_0_clk_X
*1507 ANTENNA_clkbuf_4_10_0_clk_A
*1508 ANTENNA_clkbuf_4_10_0_clk_X
*1509 ANTENNA_clkbuf_4_11_0_clk_A
*1510 ANTENNA_clkbuf_4_11_0_clk_X
*1511 ANTENNA_clkbuf_4_12_0_clk_A
*1512 ANTENNA_clkbuf_4_12_0_clk_X
*1513 ANTENNA_clkbuf_4_13_0_clk_A
*1514 ANTENNA_clkbuf_4_13_0_clk_X
*1515 ANTENNA_clkbuf_4_14_0_clk_A
*1516 ANTENNA_clkbuf_4_14_0_clk_X
*1517 ANTENNA_clkbuf_4_15_0_clk_A
*1518 ANTENNA_clkbuf_4_15_0_clk_X
*1519 ANTENNA_clkbuf_4_1_0_clk_A
*1520 ANTENNA_clkbuf_4_1_0_clk_X
*1521 ANTENNA_clkbuf_4_2_0_clk_A
*1522 ANTENNA_clkbuf_4_2_0_clk_X
*1523 ANTENNA_clkbuf_4_3_0_clk_A
*1524 ANTENNA_clkbuf_4_3_0_clk_X
*1525 ANTENNA_clkbuf_4_4_0_clk_A
*1526 ANTENNA_clkbuf_4_4_0_clk_X
*1527 ANTENNA_clkbuf_4_5_0_clk_A
*1528 ANTENNA_clkbuf_4_6_0_clk_A
*1529 ANTENNA_clkbuf_4_7_0_clk_A
*1530 ANTENNA_clkbuf_4_7_0_clk_X
*1531 ANTENNA_clkbuf_4_8_0_clk_A
*1532 ANTENNA_clkbuf_4_9_0_clk_A
*1533 ANTENNA_clkbuf_4_9_0_clk_X
*1534 ANTENNA_fanout39_X
*1535 ANTENNA_hold31_A
*1536 ANTENNA_hold32_A
*1537 ANTENNA_hold44_A
*1538 ANTENNA_hold68_A
*1539 ANTENNA_input10_A
*1540 ANTENNA_input11_A
*1541 ANTENNA_input11_X
*1542 ANTENNA_input12_A
*1543 ANTENNA_input13_A
*1544 ANTENNA_input14_A
*1545 ANTENNA_input15_A
*1546 ANTENNA_input16_A
*1547 ANTENNA_input17_A
*1548 ANTENNA_input18_A
*1549 ANTENNA_input18_X
*1550 ANTENNA_input19_A
*1551 ANTENNA_input1_A
*1552 ANTENNA_input20_A
*1553 ANTENNA_input21_A
*1554 ANTENNA_input22_A
*1555 ANTENNA_input23_A
*1556 ANTENNA_input24_A
*1557 ANTENNA_input25_A
*1558 ANTENNA_input2_A
*1559 ANTENNA_input3_A
*1560 ANTENNA_input4_A
*1561 ANTENNA_input5_A
*1562 ANTENNA_input6_A
*1563 ANTENNA_input7_A
*1564 ANTENNA_input8_A
*1565 ANTENNA_input9_A
*1566 ANTENNA_merge759_RESET_B
*1567 ANTENNA_merge761_A2
*1568 ANTENNA_merge762_CLK
*1569 ANTENNA_merge762_SCD
*1570 ANTENNA_merge763_CLK_N
*1571 ANTENNA_merge763_D
*1572 ANTENNA_merge763_RESET_B
*1573 ANTENNA_merge764_A3
*1574 ANTENNA_merge764_B1
*1575 ANTENNA_merge765_CLK
*1576 ANTENNA_merge768_A2
*1577 ANTENNA_merge769_CLK
*1578 ANTENNA_merge771_CLK
*1579 ANTENNA_merge772_CLK
*1580 ANTENNA_merge772_SCE
*1581 ANTENNA_merge773_A2
*1582 ANTENNA_merge773_B1
*1583 ANTENNA_merge774_CLK
*1584 ANTENNA_merge776_CLK
*1585 ANTENNA_merge777_CLK
*1586 ANTENNA_merge781_CLK
*1587 ANTENNA_merge781_DE
*1588 ANTENNA_merge783_CLK
*1589 ANTENNA_merge785_CLK
*1590 ANTENNA_merge785_SCE
*1591 ANTENNA_merge786_CLK
*1592 ANTENNA_merge788_CLK_N
*1593 ANTENNA_merge788_Q
*1594 ANTENNA_merge788_RESET_B
*1595 ANTENNA_merge788_SCE
*1596 ANTENNA_merge789_CLK
*1597 ANTENNA_merge789_RESET_B
*1598 ANTENNA_merge791_CLK
*1599 ANTENNA_merge792_CLK
*1600 ANTENNA_merge793_CLK
*1601 ANTENNA_merge793_SCE
*1602 ANTENNA_merge794_CLK
*1603 ANTENNA_merge795_CLK
*1604 ANTENNA_merge797_SCD
*1605 ANTENNA_merge798_CLK
*1606 ANTENNA_merge799_CLK
*1607 ANTENNA_merge800_CLK
*1608 ANTENNA_merge800_DE
*1609 ANTENNA_merge801_CLK
*1610 ANTENNA_merge803_CLK
*1611 ANTENNA_merge803_DE
*1612 ANTENNA_merge804_CLK
*1613 ANTENNA_merge805_RESET_B
*1614 ANTENNA_merge808_CLK
*1615 ANTENNA_merge808_SCE
*1616 ANTENNA_merge809_CLK_N
*1617 ANTENNA_merge810_CLK
*1618 ANTENNA_merge811_CLK
*1619 ANTENNA_merge811_SCD
*1620 ANTENNA_merge812_CLK
*1621 ANTENNA_merge813_CLK
*1622 ANTENNA_merge814_CLK
*1623 ANTENNA_merge814_SCE
*1624 ANTENNA_merge815_CLK_N
*1625 ANTENNA_merge816_CLK
*1626 ANTENNA_merge817_CLK_N
*1627 ANTENNA_merge818_CLK
*1628 ANTENNA_merge819_CLK
*1629 ANTENNA_merge820_CLK
*1630 ANTENNA_merge820_SET_B
*1631 ANTENNA_merge821_CLK_N
*1632 ANTENNA_merge821_SCD
*1633 ANTENNA_merge822_CLK
*1634 ANTENNA_merge823_B1
*1635 ANTENNA_merge824_CLK
*1636 ANTENNA_merge825_CLK
*1637 ANTENNA_merge826_D
*1638 ANTENNA_merge826_RESET_B
*1639 ANTENNA_merge826_SCE
*1640 ANTENNA_merge826_SET_B
*1641 ANTENNA_merge828_CLK
*1642 ANTENNA_merge829_CLK_N
*1643 ANTENNA_merge829_SCE
*1644 ANTENNA_merge830_CLK
*1645 ANTENNA_merge831_A2
*1646 ANTENNA_merge835_A2
*1647 ANTENNA_merge835_B1
*1648 ANTENNA_merge836_CLK
*1649 ANTENNA_merge838_CLK
*1650 ANTENNA_merge839_A1
*1651 ANTENNA_merge839_S1
*1652 ANTENNA_merge840_A3
*1653 ANTENNA_merge840_S0
*1654 ANTENNA_merge840_S1
*1655 ANTENNA_merge841_A0
*1656 ANTENNA_merge842_A1
*1657 ANTENNA_merge842_A3
*1658 ANTENNA_merge842_S0
*1659 ANTENNA_merge842_S1
*1660 ANTENNA_merge844_A0
*1661 ANTENNA_merge844_A3
*1662 ANTENNA_merge844_S1
*1663 ANTENNA_merge845_A0
*1664 ANTENNA_merge845_A1
*1665 ANTENNA_merge846_A1
*1666 ANTENNA_merge846_A3
*1667 ANTENNA_merge846_S0
*1668 ANTENNA_merge846_S1
*1669 ANTENNA_merge849_A1
*1670 ANTENNA_merge849_S0
*1671 ANTENNA_merge850_A0
*1672 ANTENNA_merge850_A2
*1673 ANTENNA_merge851_A0
*1674 ANTENNA_merge854_CLK_N
*1675 ANTENNA_merge856_A0
*1676 ANTENNA_merge856_A1
*1677 ANTENNA_merge856_S0
*1678 ANTENNA_merge857_A2
*1679 ANTENNA_merge858_A1
*1680 ANTENNA_merge858_A2
*1681 ANTENNA_merge858_S0
*1682 ANTENNA_merge859_S1
*1683 ANTENNA_merge861_A3
*1684 ANTENNA_merge861_S0
*1685 ANTENNA_merge861_S1
*1686 ANTENNA_merge862_CLK
*1687 ANTENNA_merge863_CLK
*1688 ANTENNA_merge864_CLK_N
*1689 ANTENNA_merge865_CLK
*1690 ANTENNA_merge866_CLK
*1691 ANTENNA_merge867_CLK
*1692 ANTENNA_merge868_CLK
*1693 ANTENNA_merge870_CLK
*1694 ANTENNA_merge872_CLK
*1695 ANTENNA_merge873_CLK
*1696 ANTENNA_merge876_GATE_N
*1697 ANTENNA_merge877_GATE
*1698 ANTENNA_merge878_GATE
*1699 ANTENNA_merge879_GATE_N
*1700 ANTENNA_merge880_GATE_N
*1701 ANTENNA_merge881_GATE_N
*1702 ANTENNA_merge883_GATE
*1703 ANTENNA_merge884_GATE
*1704 ANTENNA_merge885_CLK
*1705 ANTENNA_merge886_CLK
*1706 ANTENNA_merge887_CLK
*1707 ANTENNA_merge888_CLK
*1708 ANTENNA_merge890_CLK
*1709 ANTENNA_merge891_CLK
*1710 ANTENNA_merge893_CLK_N
*1711 ANTENNA_merge894_CLK
*1712 ANTENNA_merge894_Q
*1713 ANTENNA_merge895_CLK
*1714 ANTENNA_merge897_CLK
*1715 ANTENNA_output32_A
*1716 ANTENNA_output36_A
*1717 ANTENNA_s900_CLK
*1718 ANTENNA_s901_CLK
*1719 ANTENNA_s902_CLK
*1720 ANTENNA_s903_CLK
*1721 ANTENNA_s904_CLK
*1722 ANTENNA_s905_CLK
*1723 ANTENNA_s905_GCLK
*1724 ANTENNA_s906_CLK
*1725 ANTENNA_s907_CLK
*1726 ANTENNA_s908_GATE_N
*1727 ANTENNA_s909_GATE_N
*1728 ANTENNA_s910_GATE
*1729 ANTENNA_s911_GATE_N
*1730 ANTENNA_s912_GATE_N
*1731 ANTENNA_s914_GATE
*1732 ANTENNA_s915_SLEEP_B
*1733 ANTENNA_s917_CLK
*1734 ANTENNA_s919_CLK
*1735 ANTENNA_s920_CLK
*1736 ANTENNA_s921_CLK
*1737 ANTENNA_s922_CLK
*1738 ANTENNA_s924_GATE_N
*1739 ANTENNA_s925_GATE_N
*1740 ANTENNA_s927_GATE_N
*1741 ANTENNA_s928_GATE_N
*1742 ANTENNA_s929_GATE_N
*1743 ANTENNA_s930_GATE
*1744 ANTENNA_s931_SLEEP_B
*1745 ANTENNA_s932_CLK
*1746 ANTENNA_wire38_A
*1747 ANTENNA_wire38_X
*1748 FILLER_0_0_109
*1749 FILLER_0_0_113
*1750 FILLER_0_0_125
*1751 FILLER_0_0_137
*1752 FILLER_0_0_141
*1753 FILLER_0_0_15
*1754 FILLER_0_0_153
*1755 FILLER_0_0_165
*1756 FILLER_0_0_169
*1757 FILLER_0_0_181
*1758 FILLER_0_0_193
*1759 FILLER_0_0_197
*1760 FILLER_0_0_209
*1761 FILLER_0_0_221
*1762 FILLER_0_0_225
*1763 FILLER_0_0_237
*1764 FILLER_0_0_249
*1765 FILLER_0_0_253
*1766 FILLER_0_0_265