*SPEF "ieee 1481-1999"
*DESIGN "netlist_1"
*DATE "22:12:24 Saturday August 17, 2024"
*VENDOR "The OpenROAD Project"
*PROGRAM "OpenROAD"
*VERSION "d423155d69de7f683a23f6916ead418a615ad4ad"
*DESIGN_FLOW "NAME_SCOPE LOCAL" "PIN_CAP NONE"
*DIVIDER /
*DELIMITER :
*BUS_DELIMITER []
*T_UNIT 1 NS
*C_UNIT 1 PF
*R_UNIT 1 OHM
*L_UNIT 1 HENRY

*NAME_MAP
*3 clk
*4 in0
*5 in1
*6 in10
*7 in11
*8 in12
*9 in13
*10 in14
*11 in15
*12 in16
*13 in17
*14 in18
*15 in19
*16 in2
*17 in20
*18 in21
*19 in22
*20 in23
*21 in24
*22 in3
*23 in4
*24 in5
*25 in6
*26 in7
*27 in8
*28 in9
*29 out0
*30 out1
*31 out10
*32 out11
*33 out12
*34 out13
*35 out14
*36 out15
*37 out16
*38 out17
*39 out18
*40 out19
*41 out2
*42 out20
*43 out21
*44 out22
*45 out23
*46 out24
*47 out3
*48 out4
*49 out5
*50 out6
*51 out7
*52 out8
*53 out9
*54 rst
*55 clknet_0_clk
*56 clknet_0_net334
*57 clknet_0_net335
*58 clknet_0_net336
*59 clknet_0_net337
*60 clknet_0_net338
*61 clknet_0_net347
*62 clknet_0_net542
*63 clknet_0_net545
*64 clknet_0_net547
*65 clknet_0_net548
*66 clknet_0_net549
*67 clknet_0_net551
*68 clknet_0_net553
*69 clknet_0_net554
*70 clknet_0_net555
*71 clknet_0_net556
*72 clknet_0_net557
*73 clknet_0_net563
*74 clknet_0_net564
*75 clknet_0_net565
*76 clknet_0_net567
*77 clknet_0_net571
*78 clknet_0_net575
*79 clknet_0_net577
*80 clknet_0_net581
*81 clknet_0_net583
*82 clknet_0_net584
*83 clknet_0_net586
*84 clknet_0_net587
*85 clknet_0_net589
*86 clknet_0_net590
*87 clknet_0_net594
*88 clknet_0_net644
*89 clknet_0_net649
*90 clknet_0_net653
*91 clknet_0_net656
*92 clknet_0_net657
*93 clknet_0_net660
*94 clknet_0_net661
*95 clknet_0_net668
*96 clknet_0_net670
*97 clknet_0_net678
*98 clknet_0_net689
*99 clknet_0_net743
*100 clknet_0_net751
*101 clknet_1_0__leaf_net334
*102 clknet_1_0__leaf_net335
*103 clknet_1_0__leaf_net336
*104 clknet_1_0__leaf_net337
*105 clknet_1_0__leaf_net338
*106 clknet_1_0__leaf_net347
*107 clknet_1_0__leaf_net542
*108 clknet_1_0__leaf_net545
*109 clknet_1_0__leaf_net547
*110 clknet_1_0__leaf_net548
*111 clknet_1_0__leaf_net549
*112 clknet_1_0__leaf_net551
*113 clknet_1_0__leaf_net553
*114 clknet_1_0__leaf_net554
*115 clknet_1_0__leaf_net555
*116 clknet_1_0__leaf_net556
*117 clknet_1_0__leaf_net557
*118 clknet_1_0__leaf_net563
*119 clknet_1_0__leaf_net564
*120 clknet_1_0__leaf_net565
*121 clknet_1_0__leaf_net567
*122 clknet_1_0__leaf_net571
*123 clknet_1_0__leaf_net575
*124 clknet_1_0__leaf_net577
*125 clknet_1_0__leaf_net581
*126 clknet_1_0__leaf_net583
*127 clknet_1_0__leaf_net584
*128 clknet_1_0__leaf_net586
*129 clknet_1_0__leaf_net587
*130 clknet_1_0__leaf_net589
*131 clknet_1_0__leaf_net590
*132 clknet_1_0__leaf_net594
*133 clknet_1_0__leaf_net644
*134 clknet_1_0__leaf_net649
*135 clknet_1_0__leaf_net653
*136 clknet_1_0__leaf_net656
*137 clknet_1_0__leaf_net657
*138 clknet_1_0__leaf_net660
*139 clknet_1_0__leaf_net661
*140 clknet_1_0__leaf_net668
*141 clknet_1_0__leaf_net670
*142 clknet_1_0__leaf_net678
*143 clknet_1_0__leaf_net689
*144 clknet_1_0__leaf_net743
*145 clknet_1_0__leaf_net751
*146 clknet_1_1__leaf_net334
*147 clknet_1_1__leaf_net335
*148 clknet_1_1__leaf_net336
*149 clknet_1_1__leaf_net337
*150 clknet_1_1__leaf_net338
*151 clknet_1_1__leaf_net347
*152 clknet_1_1__leaf_net542
*153 clknet_1_1__leaf_net545
*154 clknet_1_1__leaf_net547
*155 clknet_1_1__leaf_net548
*156 clknet_1_1__leaf_net549
*157 clknet_1_1__leaf_net551
*158 clknet_1_1__leaf_net553
*159 clknet_1_1__leaf_net554
*160 clknet_1_1__leaf_net555
*161 clknet_1_1__leaf_net556
*162 clknet_1_1__leaf_net557
*163 clknet_1_1__leaf_net563
*164 clknet_1_1__leaf_net564
*165 clknet_1_1__leaf_net565
*166 clknet_1_1__leaf_net567
*167 clknet_1_1__leaf_net571
*168 clknet_1_1__leaf_net575
*169 clknet_1_1__leaf_net577
*170 clknet_1_1__leaf_net581
*171 clknet_1_1__leaf_net583
*172 clknet_1_1__leaf_net584
*173 clknet_1_1__leaf_net586
*174 clknet_1_1__leaf_net587
*175 clknet_1_1__leaf_net589
*176 clknet_1_1__leaf_net590
*177 clknet_1_1__leaf_net594
*178 clknet_1_1__leaf_net644
*179 clknet_1_1__leaf_net649
*180 clknet_1_1__leaf_net653
*181 clknet_1_1__leaf_net656
*182 clknet_1_1__leaf_net657
*183 clknet_1_1__leaf_net660
*184 clknet_1_1__leaf_net661
*185 clknet_1_1__leaf_net668
*186 clknet_1_1__leaf_net670
*187 clknet_1_1__leaf_net678
*188 clknet_1_1__leaf_net689
*189 clknet_1_1__leaf_net743
*190 clknet_1_1__leaf_net751
*191 clknet_4_0_0_clk
*192 clknet_4_10_0_clk
*193 clknet_4_11_0_clk
*194 clknet_4_12_0_clk
*195 clknet_4_13_0_clk
*196 clknet_4_14_0_clk
*197 clknet_4_15_0_clk
*198 clknet_4_1_0_clk
*199 clknet_4_2_0_clk
*200 clknet_4_3_0_clk
*201 clknet_4_4_0_clk
*202 clknet_4_5_0_clk
*203 clknet_4_6_0_clk
*204 clknet_4_7_0_clk
*205 clknet_4_8_0_clk
*206 clknet_4_9_0_clk
*207 net0
*208 net1
*209 net10
*210 net100
*211 net101
*212 net102
*213 net103
*214 net104
*215 net105
*216 net106
*217 net107
*218 net108
*219 net109
*220 net11
*221 net110
*222 net111
*223 net112
*224 net113
*225 net114
*226 net115
*227 net116
*228 net117
*229 net118
*230 net119
*231 net12
*232 net120
*233 net121
*234 net122
*235 net123
*236 net124
*237 net125
*238 net126
*239 net127
*240 net128
*241 net129
*242 net13
*243 net130
*244 net131
*245 net132
*246 net133
*247 net134
*248 net135
*249 net136
*250 net137
*251 net138
*252 net139
*253 net14
*254 net140
*255 net141
*256 net142
*257 net143
*258 net144
*259 net145
*260 net146
*261 net147
*262 net148
*263 net149
*264 net15
*265 net150
*266 net151
*267 net152
*268 net153
*269 net154
*270 net155
*271 net156
*272 net157
*273 net158
*274 net159
*275 net16
*276 net160
*277 net161
*278 net162
*279 net163
*280 net164
*281 net165
*282 net166
*283 net167
*284 net168
*285 net169
*286 net17
*287 net170
*288 net171
*289 net172
*290 net173
*291 net174
*292 net175
*293 net176
*294 net177
*295 net178
*296 net179
*297 net18
*298 net180
*299 net181
*300 net182
*301 net183
*302 net184
*303 net185
*304 net186
*305 net187
*306 net188
*307 net189
*308 net19
*309 net190
*310 net191
*311 net192
*312 net193
*313 net194
*314 net195
*315 net196
*316 net197
*317 net198
*318 net199
*319 net2
*320 net20
*321 net200
*322 net201
*323 net202
*324 net203
*325 net204
*326 net205
*327 net206
*328 net207
*329 net208
*330 net209
*331 net21
*332 net210
*333 net211
*334 net212
*335 net213
*336 net214
*337 net215
*338 net216
*339 net217
*340 net218
*341 net219
*342 net22
*343 net220
*344 net221
*345 net222
*346 net223
*347 net224
*348 net225
*349 net226
*350 net227
*351 net228
*352 net229
*353 net23
*354 net230
*355 net231
*356 net232
*357 net233
*358 net234
*359 net235
*360 net236
*361 net237
*362 net238
*363 net239
*364 net24
*365 net240
*366 net241
*367 net242
*368 net243
*369 net244
*370 net245
*371 net246
*372 net247
*373 net248
*374 net249
*375 net25
*376 net250
*377 net251
*378 net252
*379 net253
*380 net254
*381 net255
*382 net256
*383 net257
*384 net258
*385 net259
*386 net26
*387 net260
*388 net261
*389 net262
*390 net263
*391 net264
*392 net265
*393 net266
*394 net267
*395 net268
*396 net269
*397 net27
*398 net270
*399 net271
*400 net272
*401 net273
*402 net274
*403 net275
*404 net276
*405 net277
*406 net278
*407 net279
*408 net28
*409 net280
*410 net281
*411 net282
*412 net283
*413 net284
*414 net285
*415 net286
*416 net287
*417 net288
*418 net289
*419 net29
*420 net290
*421 net291
*422 net292
*423 net293
*424 net294
*425 net295
*426 net296
*427 net297
*428 net298
*429 net299
*430 net3
*431 net30
*432 net300
*433 net301
*434 net302
*435 net303
*436 net304
*437 net305
*438 net306
*439 net307
*440 net308
*441 net309
*442 net31
*443 net310
*444 net311
*445 net312
*446 net313
*447 net314
*448 net315
*449 net316
*450 net317
*451 net318
*452 net319
*453 net32
*454 net320
*455 net321
*456 net322
*457 net323
*458 net324
*459 net325
*460 net326
*461 net327
*462 net328
*463 net329
*464 net33
*465 net330
*466 net331
*467 net332
*468 net333
*469 net334
*470 net335
*471 net336
*472 net337
*473 net338
*474 net339
*475 net34
*476 net340
*477 net341
*478 net342
*479 net343
*480 net344
*481 net345
*482 net346
*483 net347
*484 net348
*485 net349
*486 net35
*487 net350
*488 net351
*489 net352
*490 net353
*491 net354
*492 net355
*493 net356
*494 net357
*495 net358
*496 net359
*497 net36
*498 net360
*499 net361
*500 net362
*501 net363
*502 net364
*503 net365
*504 net366
*505 net367
*506 net368
*507 net369
*508 net37
*509 net370
*510 net371
*511 net372
*512 net373
*513 net374
*514 net375
*515 net376
*516 net377
*517 net378
*518 net379
*519 net38
*520 net380
*521 net381
*522 net382
*523 net383
*524 net384
*525 net385
*526 net386
*527 net387
*528 net388
*529 net389
*530 net39
*531 net390
*532 net391
*533 net392
*534 net393
*535 net394
*536 net395
*537 net396
*538 net397
*539 net398
*540 net399
*541 net4
*542 net40
*543 net400
*544 net401
*545 net402
*546 net403
*547 net404
*548 net405
*549 net406
*550 net407
*551 net408
*552 net409
*553 net41
*554 net410
*555 net411
*556 net412
*557 net413
*558 net414
*559 net415
*560 net416
*561 net417
*562 net418
*563 net419
*564 net42
*565 net420
*566 net421
*567 net422
*568 net423
*569 net424
*570 net425
*571 net426
*572 net427
*573 net428
*574 net429
*575 net43
*576 net430
*577 net431
*578 net432
*579 net433
*580 net434
*581 net435
*582 net436
*583 net437
*584 net438
*585 net439
*586 net44
*587 net440
*588 net441
*589 net442
*590 net443
*591 net444
*592 net445
*593 net446
*594 net447
*595 net448
*596 net449
*597 net45
*598 net450
*599 net451
*600 net452
*601 net453
*602 net454
*603 net455
*604 net456
*605 net457
*606 net458
*607 net459
*608 net46
*609 net460
*610 net461
*611 net462
*612 net463
*613 net464
*614 net465
*615 net466
*616 net467
*617 net468
*618 net469
*619 net47
*620 net470
*621 net471
*622 net472
*623 net473
*624 net474
*625 net475
*626 net476
*627 net477
*628 net478
*629 net479
*630 net48
*631 net480
*632 net481
*633 net482
*634 net483
*635 net484
*636 net485
*637 net486
*638 net487
*639 net488
*640 net489
*641 net49
*642 net490
*643 net491
*644 net492
*645 net493
*646 net494
*647 net495
*648 net496
*649 net497
*650 net498
*651 net499
*652 net5
*653 net50
*654 net500
*655 net501
*656 net502
*657 net503
*658 net504
*659 net505
*660 net506
*661 net507
*662 net508
*663 net509
*664 net51
*665 net510
*666 net511
*667 net512
*668 net513
*669 net514
*670 net515
*671 net516
*672 net517
*673 net518
*674 net519
*675 net52
*676 net520
*677 net521
*678 net522
*679 net523
*680 net524
*681 net525
*682 net526
*683 net527
*684 net528
*685 net529
*686 net53
*687 net530
*688 net531
*689 net532
*690 net533
*691 net534
*692 net535
*693 net536
*694 net537
*695 net538
*696 net539
*697 net54
*698 net540
*699 net541
*700 net542
*701 net543
*702 net544
*703 net545
*704 net546
*705 net547
*706 net548
*707 net549
*708 net55
*709 net550
*710 net551
*711 net552
*712 net553
*713 net554
*714 net555
*715 net556
*716 net557
*717 net558
*718 net559
*719 net56
*720 net560
*721 net561
*722 net562
*723 net563
*724 net564
*725 net565
*726 net566
*727 net567
*728 net568
*729 net569
*730 net57
*731 net570
*732 net571
*733 net572
*734 net573
*735 net574
*736 net575
*737 net576
*738 net577
*739 net578
*740 net579
*741 net58
*742 net580
*743 net581
*744 net582
*745 net583
*746 net584
*747 net585
*748 net586
*749 net587
*750 net588
*751 net589
*752 net59
*753 net590
*754 net591
*755 net592
*756 net593
*757 net594
*758 net595
*759 net596
*760 net597
*761 net598
*762 net599
*763 net6
*764 net60
*765 net600
*766 net601
*767 net602
*768 net603
*769 net604
*770 net605
*771 net606
*772 net607
*773 net608
*774 net609
*775 net61
*776 net610
*777 net611
*778 net612
*779 net613
*780 net614
*781 net615
*782 net616
*783 net617
*784 net618
*785 net619
*786 net62
*787 net620
*788 net621
*789 net622
*790 net623
*791 net624
*792 net625
*793 net626
*794 net627
*795 net628
*796 net629
*797 net63
*798 net630
*799 net631
*800 net632
*801 net633
*802 net634
*803 net635
*804 net636
*805 net637
*806 net638
*807 net639
*808 net64
*809 net640
*810 net641
*811 net642
*812 net643
*813 net644
*814 net645
*815 net646
*816 net647
*817 net648
*818 net649
*819 net65
*820 net650
*821 net651
*822 net652
*823 net653
*824 net654
*825 net655
*826 net656
*827 net657
*828 net658
*829 net659
*830 net66
*831 net660
*832 net661
*833 net662
*834 net663
*835 net664
*836 net665
*837 net666
*838 net667
*839 net668
*840 net669
*841 net67
*842 net670
*843 net671
*844 net672
*845 net673
*846 net674
*847 net675
*848 net676
*849 net677
*850 net678
*851 net679
*852 net68
*853 net680
*854 net681
*855 net682
*856 net683
*857 net684
*858 net685
*859 net686
*860 net687
*861 net688
*862 net689
*863 net69
*864 net690
*865 net691
*866 net692
*867 net693
*868 net694
*869 net695
*870 net696
*871 net697
*872 net698
*873 net699
*874 net7
*875 net70
*876 net700
*877 net701
*878 net702
*879 net703
*880 net704
*881 net705
*882 net706
*883 net707
*884 net708
*885 net709
*886 net71
*887 net710
*888 net711
*889 net712
*890 net713
*891 net714
*892 net715
*893 net716
*894 net717
*895 net718
*896 net719
*897 net72
*898 net720
*899 net721
*900 net722
*901 net723
*902 net724
*903 net725
*904 net726
*905 net727
*906 net728
*907 net729
*908 net73
*909 net730
*910 net731
*911 net732
*912 net733
*913 net734
*914 net735
*915 net736
*916 net737
*917 net738
*918 net739
*919 net74
*920 net740
*921 net741
*922 net742
*923 net743
*924 net744
*925 net745
*926 net746
*927 net747
*928 net748
*929 net749
*930 net75
*931 net750
*932 net751
*933 net752
*934 net753
*935 net754
*936 net755
*937 net756
*938 net757
*939 net758
*940 net759
*941 net76
*942 net760
*943 net761
*944 net762
*945 net763
*946 net764
*947 net765
*948 net766
*949 net767
*950 net768
*951 net769
*952 net77
*953 net770
*954 net771
*955 net772
*956 net773
*957 net774
*958 net775
*959 net776
*960 net777
*961 net778
*962 net779
*963 net78
*964 net780
*965 net781
*966 net782
*967 net783
*968 net784
*969 net785
*970 net786
*971 net787
*972 net788
*973 net789
*974 net79
*975 net790
*976 net791
*977 net792
*978 net793
*979 net794
*980 net795
*981 net796
*982 net797
*983 net798
*984 net799
*985 net8
*986 net80
*987 net800
*988 net801
*989 net802
*990 net803
*991 net804
*992 net805
*993 net806
*994 net807
*995 net808
*996 net809
*997 net81
*998 net810
*999 net82
*1000 net83
*1001 net84
*1002 net85
*1003 net86
*1004 net87
*1005 net88
*1006 net89
*1007 net9
*1008 net90
*1009 net91
*1010 net92
*1011 net93
*1012 net94
*1013 net95
*1014 net96
*1015 net97
*1016 net98
*1017 net99
*1018 ANTENNA_c103_S1
*1019 ANTENNA_c104_S0
*1020 ANTENNA_c126_A
*1021 ANTENNA_c129_A
*1022 ANTENNA_c147_A
*1023 ANTENNA_c185_CLK
*1024 ANTENNA_c186_CLK
*1025 ANTENNA_c187_CLK_N
*1026 ANTENNA_c189_CLK
*1027 ANTENNA_c211_B
*1028 ANTENNA_c219_SET_B
*1029 ANTENNA_c222_A
*1030 ANTENNA_c230_Q
*1031 ANTENNA_c251_A2
*1032 ANTENNA_c319_GATE
*1033 ANTENNA_c32_X
*1034 ANTENNA_c349_X
*1035 ANTENNA_c350_SCD
*1036 ANTENNA_c356_A1
*1037 ANTENNA_c35_C_N
*1038 ANTENNA_c367_D
*1039 ANTENNA_c374_SCE
*1040 ANTENNA_c37_C1
*1041 ANTENNA_c407_CLK
*1042 ANTENNA_c40_A3
*1043 ANTENNA_c41_C
*1044 ANTENNA_c43_B
*1045 ANTENNA_c468_X
*1046 ANTENNA_c471_SCE
*1047 ANTENNA_c472_B
*1048 ANTENNA_c475_SCD
*1049 ANTENNA_c477_S0
*1050 ANTENNA_c481_S0
*1051 ANTENNA_c488_RESET_B
*1052 ANTENNA_c489_A
*1053 ANTENNA_c507_X
*1054 ANTENNA_c50_A
*1055 ANTENNA_c510_C
*1056 ANTENNA_c513_B
*1057 ANTENNA_c519_B
*1058 ANTENNA_c534_CLK
*1059 ANTENNA_c536_X
*1060 ANTENNA_c537_CLK_N
*1061 ANTENNA_c537_SCD
*1062 ANTENNA_c538_B
*1063 ANTENNA_c539_C
*1064 ANTENNA_c541_C
*1065 ANTENNA_c546_B
*1066 ANTENNA_c550_DE
*1067 ANTENNA_c562_C1
*1068 ANTENNA_c565_A0
*1069 ANTENNA_c638_A
*1070 ANTENNA_c639_CLK
*1071 ANTENNA_c63_CLK
*1072 ANTENNA_c646_CLK_N
*1073 ANTENNA_c652_B
*1074 ANTENNA_c65_CLK
*1075 ANTENNA_c665_CLK
*1076 ANTENNA_c68_CLK_N
*1077 ANTENNA_c70_CLK
*1078 ANTENNA_c711_C1
*1079 ANTENNA_c716_B
*1080 ANTENNA_c72_D_N
*1081 ANTENNA_c92_B
*1082 ANTENNA_c93_A
*1083 ANTENNA_c95_S1
*1084 ANTENNA_c97_C
*1085 ANTENNA_c99_D1
*1086 ANTENNA_clkbuf_0_clk_A
*1087 ANTENNA_clkbuf_0_clk_X
*1088 ANTENNA_clkbuf_4_0_0_clk_A
*1089 ANTENNA_clkbuf_4_0_0_clk_X
*1090 ANTENNA_clkbuf_4_10_0_clk_A
*1091 ANTENNA_clkbuf_4_11_0_clk_A
*1092 ANTENNA_clkbuf_4_12_0_clk_A
*1093 ANTENNA_clkbuf_4_13_0_clk_A
*1094 ANTENNA_clkbuf_4_14_0_clk_A
*1095 ANTENNA_clkbuf_4_15_0_clk_A
*1096 ANTENNA_clkbuf_4_1_0_clk_A
*1097 ANTENNA_clkbuf_4_2_0_clk_A
*1098 ANTENNA_clkbuf_4_3_0_clk_A
*1099 ANTENNA_clkbuf_4_4_0_clk_A
*1100 ANTENNA_clkbuf_4_5_0_clk_A
*1101 ANTENNA_clkbuf_4_6_0_clk_A
*1102 ANTENNA_clkbuf_4_7_0_clk_A
*1103 ANTENNA_clkbuf_4_7_0_clk_X
*1104 ANTENNA_clkbuf_4_8_0_clk_A
*1105 ANTENNA_clkbuf_4_9_0_clk_A
*1106 ANTENNA_fanout39_X
*1107 ANTENNA_input10_A
*1108 ANTENNA_input11_A
*1109 ANTENNA_input12_A
*1110 ANTENNA_input13_A
*1111 ANTENNA_input14_A
*1112 ANTENNA_input15_A
*1113 ANTENNA_input16_A
*1114 ANTENNA_input17_A
*1115 ANTENNA_input18_A
*1116 ANTENNA_input19_A
*1117 ANTENNA_input1_A
*1118 ANTENNA_input20_A
*1119 ANTENNA_input21_A
*1120 ANTENNA_input22_A
*1121 ANTENNA_input23_A
*1122 ANTENNA_input2_A
*1123 ANTENNA_input3_A
*1124 ANTENNA_input4_A
*1125 ANTENNA_input5_A
*1126 ANTENNA_input6_A
*1127 ANTENNA_input7_A
*1128 ANTENNA_input8_A
*1129 ANTENNA_input9_A
*1130 ANTENNA_output28_A
*1131 FILLER_0_0_109
*1132 FILLER_0_0_113
*1133 FILLER_0_0_125
*1134 FILLER_0_0_137
*1135 FILLER_0_0_141
*1136 FILLER_0_0_15
*1137 FILLER_0_0_153
*1138 FILLER_0_0_165
*1139 FILLER_0_0_169
*1140 FILLER_0_0_181
*1141 FILLER_0_0_193
*1142 FILLER_0_0_197
*1143 FILLER_0_0_209
*1144 FILLER_0_0_221
*1145 FILLER_0_0_225
*1146 FILLER_0_0_237
*1147 FILLER_0_0_249
*1148 FILLER_0_0_253
*1149 FILLER_0_0_265
*1150 FILLER_0_0_27
*1151 FILLER_0_0_277
*1152 FILLER_0_0_281
*1153 FILLER_0_0_29
*1154 FILLER_0_0_293
*1155 FILLER_0_0_3
*1156 FILLER_0_0_305
*1157 FILLER_0_0_309
*1158 FILLER_0_0_321
*1159 FILLER_0_0_333
*1160 FILLER_0_0_337
*1161 FILLER_0_0_349
*1162 FILLER_0_0_361
*1163 FILLER_0_0_365
*1164 FILLER_0_0_377
*1165 FILLER_0_0_389
*1166 FILLER_0_0_393
*1167 FILLER_0_0_405
*1168 FILLER_0_0_41
*1169 FILLER_0_0_417
*1170 FILLER_0_0_421
*1171 FILLER_0_0_433
*1172 FILLER_0_0_441
*1173 FILLER_0_0_447
*1174 FILLER_0_0_449
*1175 FILLER_0_0_461
*1176 FILLER_0_0_473
*1177 FILLER_0_0_477
*1178 FILLER_0_0_489
*1179 FILLER_0_0_501
*1180 FILLER_0_0_505
*1181 FILLER_0_0_517
*1182 FILLER_0_0_529
*1183 FILLER_0_0_53
*1184 FILLER_0_0_533
*1185 FILLER_0_0_545
*1186 FILLER_0_0_557
*1187 FILLER_0_0_561
*1188 FILLER_0_0_57
*1189 FILLER_0_0_573
*1190 FILLER_0_0_585
*1191 FILLER_0_0_589
*1192 FILLER_0_0_601
*1193 FILLER_0_0_613
*1194 FILLER_0_0_617
*1195 FILLER_0_0_69
*1196 FILLER_0_0_81
*1197 FILLER_0_0_85
*1198 FILLER_0_0_97
*1199 FILLER_0_100_109
*1200 FILLER_0_100_121
*1201 FILLER_0_100_133
*1202 FILLER_0_100_139
*1203 FILLER_0_100_141
*1204 FILLER_0_100_15
*1205 FILLER_0_100_153
*1206 FILLER_0_100_165
*1207 FILLER_0_100_177
*1208 FILLER_0_100_189
*1209 FILLER_0_100_195
*1210 FILLER_0_100_197
*1211 FILLER_0_100_209
*1212 FILLER_0_100_221
*1213 FILLER_0_100_233
*1214 FILLER_0_100_245
*1215 FILLER_0_100_251
*1216 FILLER_0_100_253
*1217 FILLER_0_100_265
*1218 FILLER_0_100_27
*1219 FILLER_0_100_277
*1220 FILLER_0_100_289
*1221 FILLER_0_100_29
*1222 FILLER_0_100_3
*1223 FILLER_0_100_301
*1224 FILLER_0_100_307
*1225 FILLER_0_100_309
*1226 FILLER_0_100_321
*1227 FILLER_0_100_333
*1228 FILLER_0_100_345
*1229 FILLER_0_100_357
*1230 FILLER_0_100_363
*1231 FILLER_0_100_365
*1232 FILLER_0_100_377
*1233 FILLER_0_100_389
*1234 FILLER_0_100_401
*1235 FILLER_0_100_41
*1236 FILLER_0_100_413
*1237 FILLER_0_100_419
*1238 FILLER_0_100_421
*1239 FILLER_0_100_433
*1240 FILLER_0_100_445
*1241 FILLER_0_100_457
*1242 FILLER_0_100_469
*1243 FILLER_0_100_475
*1244 FILLER_0_100_477
*1245 FILLER_0_100_489
*1246 FILLER_0_100_501
*1247 FILLER_0_100_513
*1248 FILLER_0_100_525
*1249 FILLER_0_100_53
*1250 FILLER_0_100_531
*1251 FILLER_0_100_533
*1252 FILLER_0_100_545
*1253 FILLER_0_100_557
*1254 FILLER_0_100_569
*1255 FILLER_0_100_581
*1256 FILLER_0_100_587
*1257 FILLER_0_100_589
*1258 FILLER_0_100_601
*1259 FILLER_0_100_613
*1260 FILLER_0_100_65
*1261 FILLER_0_100_77
*1262 FILLER_0_100_83
*1263 FILLER_0_100_85
*1264 FILLER_0_100_97
*1265 FILLER_0_101_109
*1266 FILLER_0_101_113
*1267 FILLER_0_101_125
*1268 FILLER_0_101_137
*1269 FILLER_0_101_141
*1270 FILLER_0_101_15
*1271 FILLER_0_101_153
*1272 FILLER_0_101_165
*1273 FILLER_0_101_169
*1274 FILLER_0_101_181
*1275 FILLER_0_101_193
*1276 FILLER_0_101_197
*1277 FILLER_0_101_209
*1278 FILLER_0_101_221
*1279 FILLER_0_101_225
*1280 FILLER_0_101_237
*1281 FILLER_0_101_249
*1282 FILLER_0_101_253
*1283 FILLER_0_101_265
*1284 FILLER_0_101_27
*1285 FILLER_0_101_277
*1286 FILLER_0_101_281
*1287 FILLER_0_101_29
*1288 FILLER_0_101_293
*1289 FILLER_0_101_3
*1290 FILLER_0_101_305
*1291 FILLER_0_101_309
*1292 FILLER_0_101_321
*1293 FILLER_0_101_333
*1294 FILLER_0_101_337
*1295 FILLER_0_101_349
*1296 FILLER_0_101_361
*1297 FILLER_0_101_365
*1298 FILLER_0_101_377
*1299 FILLER_0_101_389
*1300 FILLER_0_101_393
*1301 FILLER_0_101_405
*1302 FILLER_0_101_41
*1303 FILLER_0_101_417
*1304 FILLER_0_101_421
*1305 FILLER_0_101_433
*1306 FILLER_0_101_445
*1307 FILLER_0_101_449
*1308 FILLER_0_101_461
*1309 FILLER_0_101_473
*1310 FILLER_0_101_477
*1311 FILLER_0_101_489
*1312 FILLER_0_101_501
*1313 FILLER_0_101_505
*1314 FILLER_0_101_517
*1315 FILLER_0_101_529
*1316 FILLER_0_101_53
*1317 FILLER_0_101_533
*1318 FILLER_0_101_545
*1319 FILLER_0_101_557
*1320 FILLER_0_101_561
*1321 FILLER_0_101_57
*1322 FILLER_0_101_573
*1323 FILLER_0_101_585
*1324 FILLER_0_101_589
*1325 FILLER_0_101_601
*1326 FILLER_0_101_613
*1327 FILLER_0_101_617
*1328 FILLER_0_101_69
*1329 FILLER_0_101_81
*1330 FILLER_0_101_85
*1331 FILLER_0_101_97
*1332 FILLER_0_10_109
*1333 FILLER_0_10_121
*1334 FILLER_0_10_133
*1335 FILLER_0_10_139
*1336 FILLER_0_10_141
*1337 FILLER_0_10_15
*1338 FILLER_0_10_153
*1339 FILLER_0_10_165
*1340 FILLER_0_10_177
*1341 FILLER_0_10_189
*1342 FILLER_0_10_195
*1343 FILLER_0_10_197
*1344 FILLER_0_10_209
*1345 FILLER_0_10_221
*1346 FILLER_0_10_233
*1347 FILLER_0_10_245
*1348 FILLER_0_10_251
*1349 FILLER_0_10_253
*1350 FILLER_0_10_265
*1351 FILLER_0_10_27
*1352 FILLER_0_10_277
*1353 FILLER_0_10_289
*1354 FILLER_0_10_29
*1355 FILLER_0_10_3
*1356 FILLER_0_10_301
*1357 FILLER_0_10_307
*1358 FILLER_0_10_309
*1359 FILLER_0_10_321
*1360 FILLER_0_10_333
*1361 FILLER_0_10_345
*1362 FILLER_0_10_357
*1363 FILLER_0_10_363
*1364 FILLER_0_10_365
*1365 FILLER_0_10_377
*1366 FILLER_0_10_389
*1367 FILLER_0_10_401
*1368 FILLER_0_10_41
*1369 FILLER_0_10_413
*1370 FILLER_0_10_419
*1371 FILLER_0_10_421
*1372 FILLER_0_10_433
*1373 FILLER_0_10_445
*1374 FILLER_0_10_457
*1375 FILLER_0_10_469
*1376 FILLER_0_10_475
*1377 FILLER_0_10_477
*1378 FILLER_0_10_489
*1379 FILLER_0_10_501
*1380 FILLER_0_10_513
*1381 FILLER_0_10_525
*1382 FILLER_0_10_53
*1383 FILLER_0_10_531
*1384 FILLER_0_10_533
*1385 FILLER_0_10_545
*1386 FILLER_0_10_557
*1387 FILLER_0_10_569
*1388 FILLER_0_10_581
*1389 FILLER_0_10_587
*1390 FILLER_0_10_589
*1391 FILLER_0_10_601
*1392 FILLER_0_10_613
*1393 FILLER_0_10_65
*1394 FILLER_0_10_77
*1395 FILLER_0_10_83
*1396 FILLER_0_10_85
*1397 FILLER_0_10_97
*1398 FILLER_0_11_105
*1399 FILLER_0_11_111
*1400 FILLER_0_11_113
*1401 FILLER_0_11_125
*1402 FILLER_0_11_137
*1403 FILLER_0_11_149
*1404 FILLER_0_11_15
*1405 FILLER_0_11_161
*1406 FILLER_0_11_167
*1407 FILLER_0_11_169
*1408 FILLER_0_11_181
*1409 FILLER_0_11_193
*1410 FILLER_0_11_205
*1411 FILLER_0_11_217
*1412 FILLER_0_11_223
*1413 FILLER_0_11_225
*1414 FILLER_0_11_237
*1415 FILLER_0_11_249
*1416 FILLER_0_11_261
*1417 FILLER_0_11_27
*1418 FILLER_0_11_273
*1419 FILLER_0_11_279
*1420 FILLER_0_11_281
*1421 FILLER_0_11_293
*1422 FILLER_0_11_3
*1423 FILLER_0_11_305
*1424 FILLER_0_11_317
*1425 FILLER_0_11_329
*1426 FILLER_0_11_335
*1427 FILLER_0_11_337
*1428 FILLER_0_11_349
*1429 FILLER_0_11_361
*1430 FILLER_0_11_373
*1431 FILLER_0_11_385
*1432 FILLER_0_11_39
*1433 FILLER_0_11_391
*1434 FILLER_0_11_393
*1435 FILLER_0_11_405
*1436 FILLER_0_11_417
*1437 FILLER_0_11_429
*1438 FILLER_0_11_441
*1439 FILLER_0_11_447
*1440 FILLER_0_11_449
*1441 FILLER_0_11_461
*1442 FILLER_0_11_473
*1443 FILLER_0_11_485
*1444 FILLER_0_11_497
*1445 FILLER_0_11_503
*1446 FILLER_0_11_505
*1447 FILLER_0_11_51
*1448 FILLER_0_11_517
*1449 FILLER_0_11_529
*1450 FILLER_0_11_541
*1451 FILLER_0_11_55
*1452 FILLER_0_11_553
*1453 FILLER_0_11_559
*1454 FILLER_0_11_561
*1455 FILLER_0_11_57
*1456 FILLER_0_11_573
*1457 FILLER_0_11_585
*1458 FILLER_0_11_597
*1459 FILLER_0_11_609
*1460 FILLER_0_11_615
*1461 FILLER_0_11_617
*1462 FILLER_0_11_69
*1463 FILLER_0_11_81
*1464 FILLER_0_11_93
*1465 FILLER_0_12_109
*1466 FILLER_0_12_121
*1467 FILLER_0_12_133
*1468 FILLER_0_12_139
*1469 FILLER_0_12_141
*1470 FILLER_0_12_15
*1471 FILLER_0_12_153
*1472 FILLER_0_12_165
*1473 FILLER_0_12_177
*1474 FILLER_0_12_189
*1475 FILLER_0_12_195
*1476 FILLER_0_12_197
*1477 FILLER_0_12_209
*1478 FILLER_0_12_221
*1479 FILLER_0_12_233
*1480 FILLER_0_12_245
*1481 FILLER_0_12_251
*1482 FILLER_0_12_253
*1483 FILLER_0_12_265
*1484 FILLER_0_12_27
*1485 FILLER_0_12_277
*1486 FILLER_0_12_289
*1487 FILLER_0_12_29
*1488 FILLER_0_12_3
*1489 FILLER_0_12_301
*1490 FILLER_0_12_307
*1491 FILLER_0_12_309
*1492 FILLER_0_12_321
*1493 FILLER_0_12_333
*1494 FILLER_0_12_345
*1495 FILLER_0_12_357
*1496 FILLER_0_12_363
*1497 FILLER_0_12_365
*1498 FILLER_0_12_377
*1499 FILLER_0_12_389
*1500 FILLER_0_12_401
*1501 FILLER_0_12_41
*1502 FILLER_0_12_413
*1503 FILLER_0_12_419
*1504 FILLER_0_12_421
*1505 FILLER_0_12_433
*1506 FILLER_0_12_445
*1507 FILLER_0_12_457
*1508 FILLER_0_12_469
*1509 FILLER_0_12_475
*1510 FILLER_0_12_477
*1511 FILLER_0_12_489
*1512 FILLER_0_12_501
*1513 FILLER_0_12_513
*1514 FILLER_0_12_525
*1515 FILLER_0_12_53
*1516 FILLER_0_12_531
*1517 FILLER_0_12_533
*1518 FILLER_0_12_545
*1519 FILLER_0_12_557
*1520 FILLER_0_12_569
*1521 FILLER_0_12_581
*1522 FILLER_0_12_587
*1523 FILLER_0_12_589
*1524 FILLER_0_12_601
*1525 FILLER_0_12_613
*1526 FILLER_0_12_65
*1527 FILLER_0_12_77
*1528 FILLER_0_12_83
*1529 FILLER_0_12_85
*1530 FILLER_0_12_97
*1531 FILLER_0_13_105
*1532 FILLER_0_13_111
*1533 FILLER_0_13_113
*1534 FILLER_0_13_125
*1535 FILLER_0_13_137
*1536 FILLER_0_13_149
*1537 FILLER_0_13_15
*1538 FILLER_0_13_161
*1539 FILLER_0_13_167
*1540 FILLER_0_13_169
*1541 FILLER_0_13_181
*1542 FILLER_0_13_193
*1543 FILLER_0_13_205
*1544 FILLER_0_13_217
*1545 FILLER_0_13_223
*1546 FILLER_0_13_225
*1547 FILLER_0_13_237
*1548 FILLER_0_13_249
*1549 FILLER_0_13_261
*1550 FILLER_0_13_27
*1551 FILLER_0_13_273
*1552 FILLER_0_13_279
*1553 FILLER_0_13_281
*1554 FILLER_0_13_293
*1555 FILLER_0_13_3
*1556 FILLER_0_13_305
*1557 FILLER_0_13_317
*1558 FILLER_0_13_329
*1559 FILLER_0_13_335
*1560 FILLER_0_13_337
*1561 FILLER_0_13_349
*1562 FILLER_0_13_361
*1563 FILLER_0_13_373
*1564 FILLER_0_13_385
*1565 FILLER_0_13_39
*1566 FILLER_0_13_391
*1567 FILLER_0_13_393
*1568 FILLER_0_13_405
*1569 FILLER_0_13_417
*1570 FILLER_0_13_429
*1571 FILLER_0_13_441
*1572 FILLER_0_13_447
*1573 FILLER_0_13_449
*1574 FILLER_0_13_461
*1575 FILLER_0_13_473
*1576 FILLER_0_13_485
*1577 FILLER_0_13_497
*1578 FILLER_0_13_503
*1579 FILLER_0_13_505
*1580 FILLER_0_13_51
*1581 FILLER_0_13_517
*1582 FILLER_0_13_529
*1583 FILLER_0_13_541
*1584 FILLER_0_13_55
*1585 FILLER_0_13_553
*1586 FILLER_0_13_559
*1587 FILLER_0_13_561
*1588 FILLER_0_13_57
*1589 FILLER_0_13_573
*1590 FILLER_0_13_585
*1591 FILLER_0_13_597
*1592 FILLER_0_13_609
*1593 FILLER_0_13_615
*1594 FILLER_0_13_617
*1595 FILLER_0_13_69
*1596 FILLER_0_13_81
*1597 FILLER_0_13_93
*1598 FILLER_0_14_109
*1599 FILLER_0_14_121
*1600 FILLER_0_14_133
*1601 FILLER_0_14_139
*1602 FILLER_0_14_141
*1603 FILLER_0_14_15
*1604 FILLER_0_14_153
*1605 FILLER_0_14_165
*1606 FILLER_0_14_177
*1607 FILLER_0_14_189
*1608 FILLER_0_14_195
*1609 FILLER_0_14_197
*1610 FILLER_0_14_209
*1611 FILLER_0_14_221
*1612 FILLER_0_14_233
*1613 FILLER_0_14_245
*1614 FILLER_0_14_251
*1615 FILLER_0_14_253
*1616 FILLER_0_14_265
*1617 FILLER_0_14_27
*1618 FILLER_0_14_277
*1619 FILLER_0_14_289
*1620 FILLER_0_14_29
*1621 FILLER_0_14_3
*1622 FILLER_0_14_301
*1623 FILLER_0_14_307
*1624 FILLER_0_14_309
*1625 FILLER_0_14_321
*1626 FILLER_0_14_333
*1627 FILLER_0_14_345
*1628 FILLER_0_14_357
*1629 FILLER_0_14_363
*1630 FILLER_0_14_365
*1631 FILLER_0_14_377
*1632 FILLER_0_14_389
*1633 FILLER_0_14_401
*1634 FILLER_0_14_41
*1635 FILLER_0_14_413
*1636 FILLER_0_14_419
*1637 FILLER_0_14_421
*1638 FILLER_0_14_433
*1639 FILLER_0_14_445
*1640 FILLER_0_14_457
*1641 FILLER_0_14_469
*1642 FILLER_0_14_475
*1643 FILLER_0_14_477
*1644 FILLER_0_14_489
*1645 FILLER_0_14_501
*1646 FILLER_0_14_513
*1647 FILLER_0_14_525
*1648 FILLER_0_14_53
*1649 FILLER_0_14_531
*1650 FILLER_0_14_533
*1651 FILLER_0_14_545
*1652 FILLER_0_14_557
*1653 FILLER_0_14_569
*1654 FILLER_0_14_581
*1655 FILLER_0_14_587
*1656 FILLER_0_14_589
*1657 FILLER_0_14_601
*1658 FILLER_0_14_613
*1659 FILLER_0_14_65
*1660 FILLER_0_14_77
*1661 FILLER_0_14_83
*1662 FILLER_0_14_85
*1663 FILLER_0_14_97
*1664 FILLER_0_15_105
*1665 FILLER_0_15_111
*1666 FILLER_0_15_113
*1667 FILLER_0_15_125
*1668 FILLER_0_15_137
*1669 FILLER_0_15_149
*1670 FILLER_0_15_15
*1671 FILLER_0_15_161
*1672 FILLER_0_15_167
*1673 FILLER_0_15_169
*1674 FILLER_0_15_181
*1675 FILLER_0_15_193
*1676 FILLER_0_15_205
*1677 FILLER_0_15_217
*1678 FILLER_0_15_223
*1679 FILLER_0_15_225
*1680 FILLER_0_15_237
*1681 FILLER_0_15_249
*1682 FILLER_0_15_261
*1683 FILLER_0_15_267
*1684 FILLER_0_15_27
*1685 FILLER_0_15_273
*1686 FILLER_0_15_279
*1687 FILLER_0_15_281
*1688 FILLER_0_15_3
*1689 FILLER_0_15_316
*1690 FILLER_0_15_328
*1691 FILLER_0_15_337
*1692 FILLER_0_15_349
*1693 FILLER_0_15_361
*1694 FILLER_0_15_373
*1695 FILLER_0_15_385
*1696 FILLER_0_15_39
*1697 FILLER_0_15_391
*1698 FILLER_0_15_393
*1699 FILLER_0_15_405
*1700 FILLER_0_15_417
*1701 FILLER_0_15_429
*1702 FILLER_0_15_441
*1703 FILLER_0_15_447
*1704 FILLER_0_15_449
*1705 FILLER_0_15_461
*1706 FILLER_0_15_473
*1707 FILLER_0_15_485
*1708 FILLER_0_15_497
*1709 FILLER_0_15_503
*1710 FILLER_0_15_505
*1711 FILLER_0_15_51
*1712 FILLER_0_15_517
*1713 FILLER_0_15_529
*1714 FILLER_0_15_541
*1715 FILLER_0_15_55
*1716 FILLER_0_15_553
*1717 FILLER_0_15_559
*1718 FILLER_0_15_561
*1719 FILLER_0_15_57