*SPEF "ieee 1481-1999"
*DESIGN "netlist_0"
*DATE "21:28:48 Thursday August 15, 2024"
*VENDOR "The OpenROAD Project"
*PROGRAM "OpenROAD"
*VERSION "d423155d69de7f683a23f6916ead418a615ad4ad"
*DESIGN_FLOW "NAME_SCOPE LOCAL" "PIN_CAP NONE"
*DIVIDER /
*DELIMITER :
*BUS_DELIMITER []
*T_UNIT 1 NS
*C_UNIT 1 PF
*R_UNIT 1 OHM
*L_UNIT 1 HENRY

*NAME_MAP
*3 clk
*4 in0
*5 in1
*6 in10
*7 in11
*8 in12
*9 in13
*10 in14
*11 in15
*12 in16
*13 in17
*14 in18
*15 in19
*16 in2
*17 in20
*18 in21
*19 in22
*20 in23
*21 in24
*22 in25
*23 in26
*24 in27
*25 in28
*26 in29
*27 in3
*28 in30
*29 in31
*30 in32
*31 in33
*32 in34
*33 in35
*34 in36
*35 in37
*36 in38
*37 in39
*38 in4
*39 in40
*40 in41
*41 in42
*42 in43
*43 in44
*44 in45
*45 in46
*46 in47
*47 in48
*48 in49
*49 in5
*50 in50
*51 in51
*52 in52
*53 in53
*54 in54
*55 in55
*56 in56
*57 in57
*58 in58
*59 in59
*60 in6
*61 in60
*62 in61
*63 in62
*64 in63
*65 in64
*66 in65
*67 in66
*68 in67
*69 in68
*70 in69
*71 in7
*72 in70
*73 in71
*74 in72
*75 in73
*76 in74
*77 in75
*78 in76
*79 in77
*80 in78
*81 in79
*82 in8
*83 in80
*84 in81
*85 in82
*86 in83
*87 in84
*88 in85
*89 in86
*90 in87
*91 in88
*92 in89
*93 in9
*94 in90
*95 in91
*96 in92
*97 in93
*98 in94
*99 in95
*100 in96
*101 in97
*102 in98
*103 in99
*104 out0
*105 out1
*106 out10
*107 out11
*108 out12
*109 out13
*110 out14
*111 out15
*112 out16
*113 out17
*114 out18
*115 out19
*116 out2
*117 out20
*118 out21
*119 out22
*120 out23
*121 out24
*122 out25
*123 out26
*124 out27
*125 out28
*126 out29
*127 out3
*128 out30
*129 out31
*130 out32
*131 out33
*132 out34
*133 out35
*134 out36
*135 out37
*136 out38
*137 out39
*138 out4
*139 out40
*140 out41
*141 out42
*142 out43
*143 out44
*144 out45
*145 out46
*146 out47
*147 out48
*148 out49
*149 out5
*150 out50
*151 out51
*152 out52
*153 out53
*154 out54
*155 out55
*156 out56
*157 out57
*158 out58
*159 out59
*160 out6
*161 out60
*162 out61
*163 out62
*164 out63
*165 out64
*166 out65
*167 out66
*168 out67
*169 out68
*170 out69
*171 out7
*172 out70
*173 out71
*174 out72
*175 out73
*176 out74
*177 out75
*178 out76
*179 out77
*180 out78
*181 out79
*182 out8
*183 out80
*184 out81
*185 out82
*186 out83
*187 out84
*188 out85
*189 out86
*190 out87
*191 out88
*192 out89
*193 out9
*194 out90
*195 out91
*196 out92
*197 out93
*198 out94
*199 out95
*200 out96
*201 out97
*202 out98
*203 out99
*204 rst
*205 clknet_0_clk
*206 clknet_0_net100
*207 clknet_0_net183
*208 clknet_0_net185
*209 clknet_0_net187
*210 clknet_0_net202
*211 clknet_0_net210
*212 clknet_0_net224
*213 clknet_0_net259
*214 clknet_0_net262
*215 clknet_0_net265
*216 clknet_0_net275
*217 clknet_0_net277
*218 clknet_0_net278
*219 clknet_0_net287
*220 clknet_0_net293
*221 clknet_0_net300
*222 clknet_0_net303
*223 clknet_0_net304
*224 clknet_0_net306
*225 clknet_0_net307
*226 clknet_0_net311
*227 clknet_0_net314
*228 clknet_0_net316
*229 clknet_0_net325
*230 clknet_0_net330
*231 clknet_0_net335
*232 clknet_0_net338
*233 clknet_0_net339
*234 clknet_0_net361
*235 clknet_0_net363
*236 clknet_0_net364
*237 clknet_0_net365
*238 clknet_0_net368
*239 clknet_0_net376
*240 clknet_0_net382
*241 clknet_0_net383
*242 clknet_0_net384
*243 clknet_0_net396
*244 clknet_0_net398
*245 clknet_0_net416
*246 clknet_0_net422
*247 clknet_0_net423
*248 clknet_0_net424
*249 clknet_0_net427
*250 clknet_0_net436
*251 clknet_0_net466
*252 clknet_0_net478
*253 clknet_0_net484
*254 clknet_0_net489
*255 clknet_0_net496
*256 clknet_0_net499
*257 clknet_0_net506
*258 clknet_0_net525
*259 clknet_0_net526
*260 clknet_0_net527
*261 clknet_0_net529
*262 clknet_0_net532
*263 clknet_0_net547
*264 clknet_0_net649
*265 clknet_0_net650
*266 clknet_0_net671
*267 clknet_0_net672
*268 clknet_0_net673
*269 clknet_0_net689
*270 clknet_0_net690
*271 clknet_0_net691
*272 clknet_0_net708
*273 clknet_0_net709
*274 clknet_0_net726
*275 clknet_0_net727
*276 clknet_0_net728
*277 clknet_0_net746
*278 clknet_0_net764
*279 clknet_0_net868
*280 clknet_0_net875
*281 clknet_0_net878
*282 clknet_0_net879
*283 clknet_0_net88
*284 clknet_0_net880
*285 clknet_0_net887
*286 clknet_0_net891
*287 clknet_0_net892
*288 clknet_0_net894
*289 clknet_0_net907
*290 clknet_0_net909
*291 clknet_0_net910
*292 clknet_0_net911
*293 clknet_0_net912
*294 clknet_0_net922
*295 clknet_0_net925
*296 clknet_0_net94
*297 clknet_1_0__leaf_net100
*298 clknet_1_0__leaf_net183
*299 clknet_1_0__leaf_net185
*300 clknet_1_0__leaf_net187
*301 clknet_1_0__leaf_net202
*302 clknet_1_0__leaf_net210
*303 clknet_1_0__leaf_net224
*304 clknet_1_0__leaf_net259
*305 clknet_1_0__leaf_net262
*306 clknet_1_0__leaf_net265
*307 clknet_1_0__leaf_net275
*308 clknet_1_0__leaf_net277
*309 clknet_1_0__leaf_net278
*310 clknet_1_0__leaf_net287
*311 clknet_1_0__leaf_net293
*312 clknet_1_0__leaf_net300
*313 clknet_1_0__leaf_net303
*314 clknet_1_0__leaf_net304
*315 clknet_1_0__leaf_net306
*316 clknet_1_0__leaf_net307
*317 clknet_1_0__leaf_net311
*318 clknet_1_0__leaf_net314
*319 clknet_1_0__leaf_net316
*320 clknet_1_0__leaf_net325
*321 clknet_1_0__leaf_net330
*322 clknet_1_0__leaf_net335
*323 clknet_1_0__leaf_net338
*324 clknet_1_0__leaf_net339
*325 clknet_1_0__leaf_net361
*326 clknet_1_0__leaf_net363
*327 clknet_1_0__leaf_net364
*328 clknet_1_0__leaf_net365
*329 clknet_1_0__leaf_net368
*330 clknet_1_0__leaf_net376
*331 clknet_1_0__leaf_net382
*332 clknet_1_0__leaf_net383
*333 clknet_1_0__leaf_net384
*334 clknet_1_0__leaf_net396
*335 clknet_1_0__leaf_net398
*336 clknet_1_0__leaf_net416
*337 clknet_1_0__leaf_net422
*338 clknet_1_0__leaf_net423
*339 clknet_1_0__leaf_net424
*340 clknet_1_0__leaf_net427
*341 clknet_1_0__leaf_net436
*342 clknet_1_0__leaf_net466
*343 clknet_1_0__leaf_net478
*344 clknet_1_0__leaf_net484
*345 clknet_1_0__leaf_net489
*346 clknet_1_0__leaf_net496
*347 clknet_1_0__leaf_net499
*348 clknet_1_0__leaf_net506
*349 clknet_1_0__leaf_net525
*350 clknet_1_0__leaf_net526
*351 clknet_1_0__leaf_net527
*352 clknet_1_0__leaf_net529
*353 clknet_1_0__leaf_net532
*354 clknet_1_0__leaf_net547
*355 clknet_1_0__leaf_net649
*356 clknet_1_0__leaf_net650
*357 clknet_1_0__leaf_net671
*358 clknet_1_0__leaf_net672
*359 clknet_1_0__leaf_net673
*360 clknet_1_0__leaf_net689
*361 clknet_1_0__leaf_net690
*362 clknet_1_0__leaf_net691
*363 clknet_1_0__leaf_net708
*364 clknet_1_0__leaf_net709
*365 clknet_1_0__leaf_net726
*366 clknet_1_0__leaf_net727
*367 clknet_1_0__leaf_net728
*368 clknet_1_0__leaf_net746
*369 clknet_1_0__leaf_net764
*370 clknet_1_0__leaf_net868
*371 clknet_1_0__leaf_net875
*372 clknet_1_0__leaf_net878
*373 clknet_1_0__leaf_net879
*374 clknet_1_0__leaf_net88
*375 clknet_1_0__leaf_net880
*376 clknet_1_0__leaf_net887
*377 clknet_1_0__leaf_net891
*378 clknet_1_0__leaf_net892
*379 clknet_1_0__leaf_net894
*380 clknet_1_0__leaf_net907
*381 clknet_1_0__leaf_net909
*382 clknet_1_0__leaf_net910
*383 clknet_1_0__leaf_net911
*384 clknet_1_0__leaf_net912
*385 clknet_1_0__leaf_net922
*386 clknet_1_0__leaf_net925
*387 clknet_1_0__leaf_net94
*388 clknet_1_1__leaf_net100
*389 clknet_1_1__leaf_net183
*390 clknet_1_1__leaf_net185
*391 clknet_1_1__leaf_net187
*392 clknet_1_1__leaf_net202
*393 clknet_1_1__leaf_net210
*394 clknet_1_1__leaf_net224
*395 clknet_1_1__leaf_net259
*396 clknet_1_1__leaf_net262
*397 clknet_1_1__leaf_net265
*398 clknet_1_1__leaf_net275
*399 clknet_1_1__leaf_net277
*400 clknet_1_1__leaf_net278
*401 clknet_1_1__leaf_net287
*402 clknet_1_1__leaf_net293
*403 clknet_1_1__leaf_net300
*404 clknet_1_1__leaf_net303
*405 clknet_1_1__leaf_net304
*406 clknet_1_1__leaf_net306
*407 clknet_1_1__leaf_net307
*408 clknet_1_1__leaf_net311
*409 clknet_1_1__leaf_net314
*410 clknet_1_1__leaf_net316
*411 clknet_1_1__leaf_net325
*412 clknet_1_1__leaf_net330
*413 clknet_1_1__leaf_net335
*414 clknet_1_1__leaf_net338
*415 clknet_1_1__leaf_net339
*416 clknet_1_1__leaf_net361
*417 clknet_1_1__leaf_net363
*418 clknet_1_1__leaf_net364
*419 clknet_1_1__leaf_net365
*420 clknet_1_1__leaf_net368
*421 clknet_1_1__leaf_net376
*422 clknet_1_1__leaf_net382
*423 clknet_1_1__leaf_net383
*424 clknet_1_1__leaf_net384
*425 clknet_1_1__leaf_net396
*426 clknet_1_1__leaf_net398
*427 clknet_1_1__leaf_net416
*428 clknet_1_1__leaf_net422
*429 clknet_1_1__leaf_net423
*430 clknet_1_1__leaf_net424
*431 clknet_1_1__leaf_net427
*432 clknet_1_1__leaf_net436
*433 clknet_1_1__leaf_net466
*434 clknet_1_1__leaf_net478
*435 clknet_1_1__leaf_net484
*436 clknet_1_1__leaf_net489
*437 clknet_1_1__leaf_net496
*438 clknet_1_1__leaf_net499
*439 clknet_1_1__leaf_net506
*440 clknet_1_1__leaf_net525
*441 clknet_1_1__leaf_net526
*442 clknet_1_1__leaf_net527
*443 clknet_1_1__leaf_net529
*444 clknet_1_1__leaf_net532
*445 clknet_1_1__leaf_net547
*446 clknet_1_1__leaf_net649
*447 clknet_1_1__leaf_net650
*448 clknet_1_1__leaf_net671
*449 clknet_1_1__leaf_net672
*450 clknet_1_1__leaf_net673
*451 clknet_1_1__leaf_net689
*452 clknet_1_1__leaf_net690
*453 clknet_1_1__leaf_net691
*454 clknet_1_1__leaf_net708
*455 clknet_1_1__leaf_net709
*456 clknet_1_1__leaf_net726
*457 clknet_1_1__leaf_net727
*458 clknet_1_1__leaf_net728
*459 clknet_1_1__leaf_net746
*460 clknet_1_1__leaf_net764
*461 clknet_1_1__leaf_net868
*462 clknet_1_1__leaf_net875
*463 clknet_1_1__leaf_net878
*464 clknet_1_1__leaf_net879
*465 clknet_1_1__leaf_net88
*466 clknet_1_1__leaf_net880
*467 clknet_1_1__leaf_net887
*468 clknet_1_1__leaf_net891
*469 clknet_1_1__leaf_net892
*470 clknet_1_1__leaf_net894
*471 clknet_1_1__leaf_net907
*472 clknet_1_1__leaf_net909
*473 clknet_1_1__leaf_net910
*474 clknet_1_1__leaf_net911
*475 clknet_1_1__leaf_net912
*476 clknet_1_1__leaf_net922
*477 clknet_1_1__leaf_net925
*478 clknet_1_1__leaf_net94
*479 clknet_4_0_0_clk
*480 clknet_4_10_0_clk
*481 clknet_4_11_0_clk
*482 clknet_4_12_0_clk
*483 clknet_4_13_0_clk
*484 clknet_4_14_0_clk
*485 clknet_4_15_0_clk
*486 clknet_4_1_0_clk
*487 clknet_4_2_0_clk
*488 clknet_4_3_0_clk
*489 clknet_4_4_0_clk
*490 clknet_4_5_0_clk
*491 clknet_4_6_0_clk
*492 clknet_4_7_0_clk
*493 clknet_4_8_0_clk
*494 clknet_4_9_0_clk
*495 net0
*496 net1
*497 net10
*498 net100
*499 net1000
*500 net1001
*501 net1002
*502 net1003
*503 net1004
*504 net1005
*505 net1006
*506 net1007
*507 net1008
*508 net1009
*509 net101
*510 net1010
*511 net1011
*512 net1012
*513 net1013
*514 net1014
*515 net1015
*516 net1016
*517 net1017
*518 net1018
*519 net1019
*520 net102
*521 net1020
*522 net1021
*523 net1022
*524 net1023
*525 net1024
*526 net1025
*527 net1026
*528 net1027
*529 net1028
*530 net1029
*531 net103
*532 net1030
*533 net1031
*534 net1032
*535 net1033
*536 net1034
*537 net1035
*538 net1036
*539 net1037
*540 net1038
*541 net1039
*542 net104
*543 net1040
*544 net1041
*545 net1042
*546 net1043
*547 net1044
*548 net1045
*549 net1046
*550 net1047
*551 net1048
*552 net1049
*553 net105
*554 net1050
*555 net1051
*556 net1052
*557 net1053
*558 net1054
*559 net1055
*560 net1056
*561 net1057
*562 net1058
*563 net1059
*564 net106
*565 net1060
*566 net1061
*567 net1062
*568 net1063
*569 net1064
*570 net1065
*571 net1066
*572 net1067
*573 net1068
*574 net1069
*575 net107
*576 net1070
*577 net1071
*578 net1072
*579 net1073
*580 net1074
*581 net1075
*582 net1076
*583 net1077
*584 net1078
*585 net1079
*586 net108
*587 net1080
*588 net1081
*589 net1082
*590 net1083
*591 net1084
*592 net1085
*593 net1086
*594 net1087
*595 net1088
*596 net1089
*597 net109
*598 net1090
*599 net1091
*600 net1092
*601 net1093
*602 net1094
*603 net1095
*604 net1096
*605 net1097
*606 net1098
*607 net1099
*608 net11
*609 net110
*610 net1100
*611 net1101
*612 net1102
*613 net1103
*614 net1104
*615 net1105
*616 net1106
*617 net1107
*618 net1108
*619 net1109
*620 net111
*621 net1110
*622 net1111
*623 net1112
*624 net1113
*625 net1114
*626 net112
*627 net113
*628 net114
*629 net115
*630 net116
*631 net117
*632 net118
*633 net119
*634 net12
*635 net120
*636 net121
*637 net122
*638 net123
*639 net124
*640 net125
*641 net126
*642 net127
*643 net128
*644 net129
*645 net13
*646 net130
*647 net131
*648 net132
*649 net133
*650 net134
*651 net135
*652 net136
*653 net137
*654 net138
*655 net139
*656 net14
*657 net140
*658 net141
*659 net142
*660 net143
*661 net144
*662 net145
*663 net146
*664 net147
*665 net148
*666 net149
*667 net15
*668 net150
*669 net151
*670 net152
*671 net153
*672 net154
*673 net155
*674 net156
*675 net157
*676 net158
*677 net159
*678 net16
*679 net160
*680 net161
*681 net162
*682 net163
*683 net164
*684 net165
*685 net166
*686 net167
*687 net168
*688 net169
*689 net17
*690 net170
*691 net171
*692 net172
*693 net173
*694 net174
*695 net175
*696 net176
*697 net177
*698 net178
*699 net179
*700 net18
*701 net180
*702 net181
*703 net182
*704 net183
*705 net184
*706 net185
*707 net186
*708 net187
*709 net188
*710 net189
*711 net19
*712 net190
*713 net191
*714 net192
*715 net193
*716 net194
*717 net195
*718 net196
*719 net197
*720 net198
*721 net199
*722 net2
*723 net20
*724 net200
*725 net201
*726 net202
*727 net203
*728 net204
*729 net205
*730 net206
*731 net207
*732 net208
*733 net209
*734 net21
*735 net210
*736 net211
*737 net212
*738 net213
*739 net214
*740 net215
*741 net216
*742 net217
*743 net218
*744 net219
*745 net22
*746 net220
*747 net221
*748 net222
*749 net223
*750 net224
*751 net225
*752 net226
*753 net227
*754 net228
*755 net229
*756 net23
*757 net230
*758 net231
*759 net232
*760 net233
*761 net234
*762 net235
*763 net236
*764 net237
*765 net238
*766 net239
*767 net24
*768 net240
*769 net241
*770 net242
*771 net243
*772 net244
*773 net245
*774 net246
*775 net247
*776 net248
*777 net249
*778 net25
*779 net250
*780 net251
*781 net252
*782 net253
*783 net254
*784 net255
*785 net256
*786 net257
*787 net258
*788 net259
*789 net26
*790 net260
*791 net261
*792 net262
*793 net263
*794 net264
*795 net265
*796 net266
*797 net267
*798 net268
*799 net269
*800 net27
*801 net270
*802 net271
*803 net272
*804 net273
*805 net274
*806 net275
*807 net276
*808 net277
*809 net278
*810 net279
*811 net28
*812 net280
*813 net281
*814 net282
*815 net283
*816 net284
*817 net285
*818 net286
*819 net287
*820 net288
*821 net289
*822 net29
*823 net290
*824 net291
*825 net292
*826 net293
*827 net294
*828 net295
*829 net296
*830 net297
*831 net298
*832 net299
*833 net3
*834 net30
*835 net300
*836 net301
*837 net302
*838 net303
*839 net304
*840 net305
*841 net306
*842 net307
*843 net308
*844 net309
*845 net31
*846 net310
*847 net311
*848 net312
*849 net313
*850 net314
*851 net315
*852 net316
*853 net317
*854 net318
*855 net319
*856 net32
*857 net320
*858 net321
*859 net322
*860 net323
*861 net324
*862 net325
*863 net326
*864 net327
*865 net328
*866 net329
*867 net33
*868 net330
*869 net331
*870 net332
*871 net333
*872 net334
*873 net335
*874 net336
*875 net337
*876 net338
*877 net339
*878 net34
*879 net340
*880 net341
*881 net342
*882 net343
*883 net344
*884 net345
*885 net346
*886 net347
*887 net348
*888 net349
*889 net35
*890 net350
*891 net351
*892 net352
*893 net353
*894 net354
*895 net355
*896 net356
*897 net357
*898 net358
*899 net359
*900 net36
*901 net360
*902 net361
*903 net362
*904 net363
*905 net364
*906 net365
*907 net366
*908 net367
*909 net368
*910 net369
*911 net37
*912 net370
*913 net371
*914 net372
*915 net373
*916 net374
*917 net375
*918 net376
*919 net377
*920 net378
*921 net379
*922 net38
*923 net380
*924 net381
*925 net382
*926 net383
*927 net384
*928 net385
*929 net386
*930 net387
*931 net388
*932 net389
*933 net39
*934 net390
*935 net391
*936 net392
*937 net393
*938 net394
*939 net395
*940 net396
*941 net397
*942 net398
*943 net399
*944 net4
*945 net40
*946 net400
*947 net401
*948 net402
*949 net403
*950 net404
*951 net405
*952 net406
*953 net407
*954 net408
*955 net409
*956 net41
*957 net410
*958 net411
*959 net412
*960 net413
*961 net414
*962 net415
*963 net416
*964 net417
*965 net418
*966 net419
*967 net42
*968 net420
*969 net421
*970 net422
*971 net423
*972 net424
*973 net425
*974 net426
*975 net427
*976 net428
*977 net429
*978 net43
*979 net430
*980 net431
*981 net432
*982 net433
*983 net434
*984 net435
*985 net436
*986 net437
*987 net438
*988 net439
*989 net44
*990 net440
*991 net441
*992 net442
*993 net443
*994 net444
*995 net445
*996 net446
*997 net447
*998 net448
*999 net449
*1000 net45
*1001 net450
*1002 net451
*1003 net452
*1004 net453
*1005 net454
*1006 net455
*1007 net456
*1008 net457
*1009 net458
*1010 net459
*1011 net46
*1012 net460
*1013 net461
*1014 net462
*1015 net463
*1016 net464
*1017 net465
*1018 net466
*1019 net467
*1020 net468
*1021 net469
*1022 net47
*1023 net470
*1024 net471
*1025 net472
*1026 net473
*1027 net474
*1028 net475
*1029 net476
*1030 net477
*1031 net478
*1032 net479
*1033 net48
*1034 net480
*1035 net481
*1036 net482
*1037 net483
*1038 net484
*1039 net485
*1040 net486
*1041 net487
*1042 net488
*1043 net489
*1044 net49
*1045 net490
*1046 net491
*1047 net492
*1048 net493
*1049 net494
*1050 net495
*1051 net496
*1052 net497
*1053 net498
*1054 net499
*1055 net5
*1056 net50
*1057 net500
*1058 net501
*1059 net502
*1060 net503
*1061 net504
*1062 net505
*1063 net506
*1064 net507
*1065 net508
*1066 net509
*1067 net51
*1068 net510
*1069 net511
*1070 net512
*1071 net513
*1072 net514
*1073 net515
*1074 net516
*1075 net517
*1076 net518
*1077 net519
*1078 net52
*1079 net520
*1080 net521
*1081 net522
*1082 net523
*1083 net524
*1084 net525
*1085 net526
*1086 net527
*1087 net528
*1088 net529
*1089 net53
*1090 net530
*1091 net531
*1092 net532
*1093 net533
*1094 net534
*1095 net535
*1096 net536
*1097 net537
*1098 net538
*1099 net539
*1100 net54
*1101 net540
*1102 net541
*1103 net542
*1104 net543
*1105 net544
*1106 net545
*1107 net546
*1108 net547
*1109 net548
*1110 net549
*1111 net55
*1112 net550
*1113 net551
*1114 net552
*1115 net553
*1116 net554
*1117 net555
*1118 net556
*1119 net557
*1120 net558
*1121 net559
*1122 net56
*1123 net560
*1124 net561
*1125 net562
*1126 net563
*1127 net564
*1128 net565
*1129 net566
*1130 net567
*1131 net568
*1132 net569
*1133 net57
*1134 net570
*1135 net571
*1136 net572
*1137 net573
*1138 net574
*1139 net575
*1140 net576
*1141 net577
*1142 net578
*1143 net579
*1144 net58
*1145 net580
*1146 net581
*1147 net582
*1148 net583
*1149 net584
*1150 net585
*1151 net586
*1152 net587
*1153 net588
*1154 net589
*1155 net59
*1156 net590
*1157 net591
*1158 net592
*1159 net593
*1160 net594
*1161 net595
*1162 net596
*1163 net597
*1164 net598
*1165 net599
*1166 net6
*1167 net60
*1168 net600
*1169 net601
*1170 net602
*1171 net603
*1172 net604
*1173 net605
*1174 net606
*1175 net607
*1176 net608
*1177 net609
*1178 net61
*1179 net610
*1180 net611
*1181 net612
*1182 net613
*1183 net614
*1184 net615
*1185 net616
*1186 net617
*1187 net618
*1188 net619
*1189 net62
*1190 net620
*1191 net621
*1192 net622
*1193 net623
*1194 net624
*1195 net625
*1196 net626
*1197 net627
*1198 net628
*1199 net629
*1200 net63
*1201 net630
*1202 net631
*1203 net632
*1204 net633
*1205 net634
*1206 net635
*1207 net636
*1208 net637
*1209 net638
*1210 net639
*1211 net64
*1212 net640
*1213 net641
*1214 net642
*1215 net643
*1216 net644
*1217 net645
*1218 net646
*1219 net647
*1220 net648
*1221 net649
*1222 net65
*1223 net650
*1224 net651
*1225 net652
*1226 net653
*1227 net654
*1228 net655
*1229 net656
*1230 net657
*1231 net658
*1232 net659
*1233 net66
*1234 net660
*1235 net661
*1236 net662
*1237 net663
*1238 net664
*1239 net665
*1240 net666
*1241 net667
*1242 net668
*1243 net669
*1244 net67
*1245 net670
*1246 net671
*1247 net672
*1248 net673
*1249 net674
*1250 net675
*1251 net676
*1252 net677
*1253 net678
*1254 net679
*1255 net68
*1256 net680
*1257 net681
*1258 net682
*1259 net683
*1260 net684
*1261 net685
*1262 net686
*1263 net687
*1264 net688
*1265 net689
*1266 net69
*1267 net690
*1268 net691
*1269 net692
*1270 net693
*1271 net694
*1272 net695
*1273 net696
*1274 net697
*1275 net698
*1276 net699
*1277 net7
*1278 net70
*1279 net700
*1280 net701
*1281 net702
*1282 net703
*1283 net704
*1284 net705
*1285 net706
*1286 net707
*1287 net708
*1288 net709
*1289 net71
*1290 net710
*1291 net711
*1292 net712
*1293 net713
*1294 net714
*1295 net715
*1296 net716
*1297 net717
*1298 net718
*1299 net719
*1300 net72
*1301 net720
*1302 net721
*1303 net722
*1304 net723
*1305 net724
*1306 net725
*1307 net726
*1308 net727
*1309 net728
*1310 net729
*1311 net73
*1312 net730
*1313 net731
*1314 net732
*1315 net733
*1316 net734
*1317 net735
*1318 net736
*1319 net737
*1320 net738
*1321 net739
*1322 net74
*1323 net740
*1324 net741
*1325 net742
*1326 net743
*1327 net744
*1328 net745
*1329 net746
*1330 net747
*1331 net748
*1332 net749
*1333 net75
*1334 net750
*1335 net751
*1336 net752
*1337 net753
*1338 net754
*1339 net755
*1340 net756
*1341 net757
*1342 net758
*1343 net759
*1344 net76
*1345 net760
*1346 net761
*1347 net762
*1348 net763
*1349 net764
*1350 net765
*1351 net766
*1352 net767
*1353 net768
*1354 net769
*1355 net77
*1356 net770
*1357 net771
*1358 net772
*1359 net773
*1360 net774
*1361 net775
*1362 net776
*1363 net777
*1364 net778
*1365 net779
*1366 net78
*1367 net780
*1368 net781
*1369 net782
*1370 net783
*1371 net784
*1372 net785
*1373 net786
*1374 net787
*1375 net788
*1376 net789
*1377 net79
*1378 net790
*1379 net791
*1380 net792
*1381 net793
*1382 net794
*1383 net795
*1384 net796
*1385 net797
*1386 net798
*1387 net799
*1388 net8
*1389 net80
*1390 net800
*1391 net801
*1392 net802
*1393 net803
*1394 net804
*1395 net805
*1396 net806
*1397 net807
*1398 net808
*1399 net809
*1400 net81
*1401 net810
*1402 net811
*1403 net812
*1404 net813
*1405 net814
*1406 net815
*1407 net816
*1408 net817
*1409 net818
*1410 net819
*1411 net82
*1412 net820
*1413 net821
*1414 net822
*1415 net823
*1416 net824
*1417 net825
*1418 net826
*1419 net827
*1420 net828
*1421 net829
*1422 net83
*1423 net830
*1424 net831
*1425 net832
*1426 net833
*1427 net834
*1428 net835
*1429 net836
*1430 net837
*1431 net838
*1432 net839
*1433 net84
*1434 net840
*1435 net841
*1436 net842
*1437 net843
*1438 net844
*1439 net845
*1440 net846
*1441 net847
*1442 net848
*1443 net849
*1444 net85
*1445 net850
*1446 net851
*1447 net852
*1448 net853
*1449 net854
*1450 net855
*1451 net856
*1452 net857
*1453 net858
*1454 net859
*1455 net86
*1456 net860
*1457 net861
*1458 net862
*1459 net863
*1460 net864
*1461 net865
*1462 net866
*1463 net867
*1464 net868
*1465 net869
*1466 net87
*1467 net870
*1468 net871
*1469 net872
*1470 net873
*1471 net874
*1472 net875
*1473 net876
*1474 net877
*1475 net878
*1476 net879
*1477 net88
*1478 net880
*1479 net881
*1480 net882
*1481 net883
*1482 net884
*1483 net885
*1484 net886
*1485 net887
*1486 net888
*1487 net889
*1488 net89
*1489 net890
*1490 net891
*1491 net892
*1492 net893
*1493 net894
*1494 net895
*1495 net896
*1496 net897
*1497 net898
*1498 net899
*1499 net9
*1500 net90
*1501 net900
*1502 net901
*1503 net902
*1504 net903
*1505 net904
*1506 net905
*1507 net906
*1508 net907
*1509 net908
*1510 net909
*1511 net91
*1512 net910
*1513 net911
*1514 net912
*1515 net913
*1516 net914
*1517 net915
*1518 net916
*1519 net917
*1520 net918
*1521 net919
*1522 net92
*1523 net920
*1524 net921
*1525 net922
*1526 net923
*1527 net924
*1528 net925
*1529 net926
*1530 net927
*1531 net928
*1532 net929
*1533 net93
*1534 net930
*1535 net931
*1536 net932
*1537 net933
*1538 net934
*1539 net935
*1540 net936
*1541 net937
*1542 net938
*1543 net939
*1544 net94
*1545 net940
*1546 net941
*1547 net942
*1548 net943
*1549 net944
*1550 net945
*1551 net946
*1552 net947
*1553 net948
*1554 net949
*1555 net95
*1556 net950
*1557 net951
*1558 net952
*1559 net953
*1560 net954
*1561 net955
*1562 net956
*1563 net957
*1564 net958
*1565 net959
*1566 net96
*1567 net960
*1568 net961
*1569 net962
*1570 net963
*1571 net964
*1572 net965
*1573 net966
*1574 net967
*1575 net968
*1576 net969
*1577 net97
*1578 net970
*1579 net971
*1580 net972
*1581 net973
*1582 net974
*1583 net975
*1584 net976
*1585 net977
*1586 net978
*1587 net979
*1588 net98
*1589 net980
*1590 net981
*1591 net982
*1592 net983
*1593 net984
*1594 net985
*1595 net986
*1596 net987
*1597 net988
*1598 net989
*1599 net99
*1600 net990
*1601 net991
*1602 net992
*1603 net993
*1604 net994
*1605 net995
*1606 net996
*1607 net997
*1608 net998
*1609 net999
*1610 ANTENNA_1
*1611 ANTENNA_2
*1612 ANTENNA_3
*1613 ANTENNA_c100_A1
*1614 ANTENNA_c100_A3
*1615 ANTENNA_c100_S1
*1616 ANTENNA_c101_A2
*1617 ANTENNA_c101_S0
*1618 ANTENNA_c101_S1
*1619 ANTENNA_c102_A0
*1620 ANTENNA_c102_A1
*1621 ANTENNA_c102_A2
*1622 ANTENNA_c102_X
*1623 ANTENNA_c103_A0
*1624 ANTENNA_c103_A2
*1625 ANTENNA_c103_S0
*1626 ANTENNA_c103_X
*1627 ANTENNA_c104_A1
*1628 ANTENNA_c105_A1
*1629 ANTENNA_c105_A3
*1630 ANTENNA_c105_S0
*1631 ANTENNA_c105_S1
*1632 ANTENNA_c106_A1
*1633 ANTENNA_c106_A3
*1634 ANTENNA_c106_S0
*1635 ANTENNA_c106_S1
*1636 ANTENNA_c107_A0
*1637 ANTENNA_c107_A2
*1638 ANTENNA_c107_S0
*1639 ANTENNA_c107_X
*1640 ANTENNA_c108_A2
*1641 ANTENNA_c108_A3
*1642 ANTENNA_c108_S0
*1643 ANTENNA_c108_S1
*1644 ANTENNA_c109_A1
*1645 ANTENNA_c109_S1
*1646 ANTENNA_c109_X
*1647 ANTENNA_c110_A2
*1648 ANTENNA_c110_A3
*1649 ANTENNA_c110_S1
*1650 ANTENNA_c111_A1
*1651 ANTENNA_c111_A2
*1652 ANTENNA_c111_B1
*1653 ANTENNA_c111_D1
*1654 ANTENNA_c112_D1
*1655 ANTENNA_c113_A2
*1656 ANTENNA_c113_D1
*1657 ANTENNA_c114_C1
*1658 ANTENNA_c115_A1
*1659 ANTENNA_c115_A3
*1660 ANTENNA_c115_S0
*1661 ANTENNA_c115_S1
*1662 ANTENNA_c116_B1
*1663 ANTENNA_c116_D1
*1664 ANTENNA_c117_A3
*1665 ANTENNA_c117_S1
*1666 ANTENNA_c118_A0
*1667 ANTENNA_c118_S0
*1668 ANTENNA_c119_A1
*1669 ANTENNA_c119_B1
*1670 ANTENNA_c119_C1
*1671 ANTENNA_c119_D1
*1672 ANTENNA_c120_B1
*1673 ANTENNA_c120_C1
*1674 ANTENNA_c120_D1
*1675 ANTENNA_c121_B1
*1676 ANTENNA_c122_A1
*1677 ANTENNA_c122_A2
*1678 ANTENNA_c122_D1
*1679 ANTENNA_c124_A0
*1680 ANTENNA_c124_A3
*1681 ANTENNA_c124_S0
*1682 ANTENNA_c124_S1
*1683 ANTENNA_c126_A2
*1684 ANTENNA_c129_D1
*1685 ANTENNA_c131_A3
*1686 ANTENNA_c132_A1
*1687 ANTENNA_c132_A2
*1688 ANTENNA_c132_B1
*1689 ANTENNA_c132_D1
*1690 ANTENNA_c132_X
*1691 ANTENNA_c133_A1
*1692 ANTENNA_c133_A2
*1693 ANTENNA_c133_B1
*1694 ANTENNA_c133_C1
*1695 ANTENNA_c133_D1
*1696 ANTENNA_c134_A
*1697 ANTENNA_c134_B
*1698 ANTENNA_c134_C_N
*1699 ANTENNA_c134_D_N
*1700 ANTENNA_c134_X
*1701 ANTENNA_c135_A1
*1702 ANTENNA_c135_A2
*1703 ANTENNA_c135_B1
*1704 ANTENNA_c135_C1
*1705 ANTENNA_c135_D1
*1706 ANTENNA_c135_X
*1707 ANTENNA_c136_A1
*1708 ANTENNA_c136_A2
*1709 ANTENNA_c136_B1
*1710 ANTENNA_c136_D1
*1711 ANTENNA_c136_X
*1712 ANTENNA_c137_A
*1713 ANTENNA_c137_B
*1714 ANTENNA_c137_C_N
*1715 ANTENNA_c137_X
*1716 ANTENNA_c138_A1
*1717 ANTENNA_c138_A2
*1718 ANTENNA_c138_B1
*1719 ANTENNA_c138_C1
*1720 ANTENNA_c138_D1
*1721 ANTENNA_c138_X
*1722 ANTENNA_c139_A1
*1723 ANTENNA_c139_A2
*1724 ANTENNA_c139_B1
*1725 ANTENNA_c139_C1
*1726 ANTENNA_c139_D1
*1727 ANTENNA_c140_A1
*1728 ANTENNA_c140_A2
*1729 ANTENNA_c140_B1
*1730 ANTENNA_c140_C1
*1731 ANTENNA_c140_D1
*1732 ANTENNA_c140_X
*1733 ANTENNA_c141_A1
*1734 ANTENNA_c141_A2
*1735 ANTENNA_c141_B1
*1736 ANTENNA_c142_A1
*1737 ANTENNA_c142_A2
*1738 ANTENNA_c142_A3
*1739 ANTENNA_c142_S0
*1740 ANTENNA_c142_S1
*1741 ANTENNA_c142_X
*1742 ANTENNA_c143_A2
*1743 ANTENNA_c143_B1
*1744 ANTENNA_c143_C1
*1745 ANTENNA_c143_X
*1746 ANTENNA_c144_A1
*1747 ANTENNA_c144_A2
*1748 ANTENNA_c144_A3
*1749 ANTENNA_c144_S0
*1750 ANTENNA_c144_X
*1751 ANTENNA_c145_A0
*1752 ANTENNA_c145_A1
*1753 ANTENNA_c145_A2
*1754 ANTENNA_c145_A3
*1755 ANTENNA_c145_S0
*1756 ANTENNA_c145_S1
*1757 ANTENNA_c146_A1
*1758 ANTENNA_c146_B1
*1759 ANTENNA_c146_D1
*1760 ANTENNA_c147_A0
*1761 ANTENNA_c147_A1
*1762 ANTENNA_c147_A2
*1763 ANTENNA_c147_A3
*1764 ANTENNA_c148_A2
*1765 ANTENNA_c148_B1
*1766 ANTENNA_c148_D1
*1767 ANTENNA_c149_A1
*1768 ANTENNA_c149_D1
*1769 ANTENNA_c149_X
*1770 ANTENNA_c150_A0
*1771 ANTENNA_c150_A1
*1772 ANTENNA_c150_A2
*1773 ANTENNA_c150_A3
*1774 ANTENNA_c150_S1
*1775 ANTENNA_c151_A1
*1776 ANTENNA_c151_A2
*1777 ANTENNA_c151_D1
*1778 ANTENNA_c151_X
*1779 ANTENNA_c152_A0
*1780 ANTENNA_c152_A1
*1781 ANTENNA_c152_A2
*1782 ANTENNA_c152_S0
*1783 ANTENNA_c152_S1
*1784 ANTENNA_c153_A0
*1785 ANTENNA_c153_A1
*1786 ANTENNA_c153_A2
*1787 ANTENNA_c153_S0
*1788 ANTENNA_c153_S1
*1789 ANTENNA_c154_A1
*1790 ANTENNA_c154_A2
*1791 ANTENNA_c154_B1
*1792 ANTENNA_c154_C1
*1793 ANTENNA_c154_D1
*1794 ANTENNA_c155_A0
*1795 ANTENNA_c155_A3
*1796 ANTENNA_c155_S0
*1797 ANTENNA_c155_S1
*1798 ANTENNA_c155_X
*1799 ANTENNA_c156_A1
*1800 ANTENNA_c156_A2
*1801 ANTENNA_c156_B1
*1802 ANTENNA_c156_C1
*1803 ANTENNA_c156_D1
*1804 ANTENNA_c156_X
*1805 ANTENNA_c157_A0
*1806 ANTENNA_c157_A1
*1807 ANTENNA_c157_A2
*1808 ANTENNA_c157_A3
*1809 ANTENNA_c157_S0
*1810 ANTENNA_c157_S1
*1811 ANTENNA_c157_X
*1812 ANTENNA_c158_B1
*1813 ANTENNA_c158_C1
*1814 ANTENNA_c158_D1
*1815 ANTENNA_c159_A2
*1816 ANTENNA_c159_B1
*1817 ANTENNA_c159_C1
*1818 ANTENNA_c159_D1
*1819 ANTENNA_c159_X
*1820 ANTENNA_c160_A1
*1821 ANTENNA_c160_A2
*1822 ANTENNA_c160_B1
*1823 ANTENNA_c160_C1
*1824 ANTENNA_c160_D1
*1825 ANTENNA_c160_X
*1826 ANTENNA_c161_A1
*1827 ANTENNA_c161_A2
*1828 ANTENNA_c161_C1
*1829 ANTENNA_c161_D1
*1830 ANTENNA_c161_X
*1831 ANTENNA_c162_A1
*1832 ANTENNA_c162_B1
*1833 ANTENNA_c162_C1
*1834 ANTENNA_c162_X
*1835 ANTENNA_c163_A0
*1836 ANTENNA_c163_A1
*1837 ANTENNA_c163_A2
*1838 ANTENNA_c163_A3
*1839 ANTENNA_c163_S0
*1840 ANTENNA_c163_S1
*1841 ANTENNA_c163_X
*1842 ANTENNA_c164_A0
*1843 ANTENNA_c164_A1
*1844 ANTENNA_c164_A2
*1845 ANTENNA_c164_A3
*1846 ANTENNA_c164_S0
*1847 ANTENNA_c164_S1
*1848 ANTENNA_c165_A0
*1849 ANTENNA_c165_A1
*1850 ANTENNA_c165_A2
*1851 ANTENNA_c165_A3
*1852 ANTENNA_c165_S0
*1853 ANTENNA_c165_S1
*1854 ANTENNA_c165_X
*1855 ANTENNA_c166_A1
*1856 ANTENNA_c166_A2
*1857 ANTENNA_c166_B1
*1858 ANTENNA_c166_C1
*1859 ANTENNA_c166_D1
*1860 ANTENNA_c166_X
*1861 ANTENNA_c167_A1
*1862 ANTENNA_c167_A2
*1863 ANTENNA_c167_B1
*1864 ANTENNA_c167_C1
*1865 ANTENNA_c167_D1
*1866 ANTENNA_c168_A0
*1867 ANTENNA_c168_A1
*1868 ANTENNA_c168_A2
*1869 ANTENNA_c168_A3
*1870 ANTENNA_c168_S0
*1871 ANTENNA_c168_X
*1872 ANTENNA_c169_A0
*1873 ANTENNA_c169_A1
*1874 ANTENNA_c169_A2
*1875 ANTENNA_c169_S0
*1876 ANTENNA_c169_S1
*1877 ANTENNA_c170_A0
*1878 ANTENNA_c170_A2
*1879 ANTENNA_c170_A3
*1880 ANTENNA_c170_S0
*1881 ANTENNA_c170_X
*1882 ANTENNA_c171_A0
*1883 ANTENNA_c171_A1
*1884 ANTENNA_c171_A2
*1885 ANTENNA_c171_A3
*1886 ANTENNA_c171_S0
*1887 ANTENNA_c171_S1
*1888 ANTENNA_c171_X