*SPEF "ieee 1481-1999"
*DESIGN "netlist_1"
*DATE "19:52:24 Monday July 29, 2024"
*VENDOR "The OpenROAD Project"
*PROGRAM "OpenROAD"
*VERSION "d423155d69de7f683a23f6916ead418a615ad4ad"
*DESIGN_FLOW "NAME_SCOPE LOCAL" "PIN_CAP NONE"
*DIVIDER /
*DELIMITER :
*BUS_DELIMITER []
*T_UNIT 1 NS
*C_UNIT 1 PF
*R_UNIT 1 OHM
*L_UNIT 1 HENRY

*NAME_MAP
*3 clk
*4 in0
*5 in1
*6 in10
*7 in11
*8 in12
*9 in13
*10 in14
*11 in15
*12 in16
*13 in17
*14 in18
*15 in19
*16 in2
*17 in20
*18 in21
*19 in22
*20 in23
*21 in24
*22 in3
*23 in4
*24 in5
*25 in6
*26 in7
*27 in8
*28 in9
*29 out0
*30 out1
*31 out10
*32 out11
*33 out12
*34 out13
*35 out14
*36 out15
*37 out16
*38 out17
*39 out18
*40 out19
*41 out2
*42 out20
*43 out21
*44 out22
*45 out23
*46 out24
*47 out3
*48 out4
*49 out5
*50 out6
*51 out7
*52 out8
*53 out9
*54 rst
*55 clknet_0_clk
*56 clknet_0_net221
*57 clknet_0_net292
*58 clknet_0_net315
*59 clknet_0_net329
*60 clknet_0_net338
*61 clknet_0_net346
*62 clknet_0_net353
*63 clknet_0_net354
*64 clknet_0_net361
*65 clknet_0_net420
*66 clknet_0_net424
*67 clknet_0_net427
*68 clknet_0_net436
*69 clknet_0_net447
*70 clknet_0_net448
*71 clknet_0_net449
*72 clknet_0_net451
*73 clknet_0_net452
*74 clknet_0_net457
*75 clknet_0_net458
*76 clknet_0_net463
*77 clknet_0_net464
*78 clknet_0_net481
*79 clknet_0_net546
*80 clknet_0_net567
*81 clknet_0_net593
*82 clknet_0_net605
*83 clknet_0_net609
*84 clknet_0_net707
*85 clknet_0_net709
*86 clknet_0_net719
*87 clknet_0_net821
*88 clknet_0_net823
*89 clknet_0_net830
*90 clknet_0_net854
*91 clknet_0_net855
*92 clknet_0_net856
*93 clknet_0_net875
*94 clknet_0_net876
*95 clknet_0_net877
*96 clknet_0_net893
*97 clknet_0_net894
*98 clknet_0_net895
*99 clknet_0_net911
*100 clknet_0_net912
*101 clknet_0_net913
*102 clknet_0_net929
*103 clknet_0_net930
*104 clknet_0_net931
*105 clknet_0_net969
*106 clknet_0_net974
*107 clknet_0_net983
*108 clknet_0_net985
*109 clknet_1_0__leaf_net221
*110 clknet_1_0__leaf_net292
*111 clknet_1_0__leaf_net315
*112 clknet_1_0__leaf_net329
*113 clknet_1_0__leaf_net338
*114 clknet_1_0__leaf_net346
*115 clknet_1_0__leaf_net353
*116 clknet_1_0__leaf_net354
*117 clknet_1_0__leaf_net361
*118 clknet_1_0__leaf_net420
*119 clknet_1_0__leaf_net424
*120 clknet_1_0__leaf_net427
*121 clknet_1_0__leaf_net436
*122 clknet_1_0__leaf_net447
*123 clknet_1_0__leaf_net448
*124 clknet_1_0__leaf_net449
*125 clknet_1_0__leaf_net451
*126 clknet_1_0__leaf_net452
*127 clknet_1_0__leaf_net457
*128 clknet_1_0__leaf_net458
*129 clknet_1_0__leaf_net463
*130 clknet_1_0__leaf_net464
*131 clknet_1_0__leaf_net481
*132 clknet_1_0__leaf_net546
*133 clknet_1_0__leaf_net567
*134 clknet_1_0__leaf_net593
*135 clknet_1_0__leaf_net605
*136 clknet_1_0__leaf_net609
*137 clknet_1_0__leaf_net707
*138 clknet_1_0__leaf_net709
*139 clknet_1_0__leaf_net719
*140 clknet_1_0__leaf_net821
*141 clknet_1_0__leaf_net823
*142 clknet_1_0__leaf_net830
*143 clknet_1_0__leaf_net854
*144 clknet_1_0__leaf_net855
*145 clknet_1_0__leaf_net856
*146 clknet_1_0__leaf_net875
*147 clknet_1_0__leaf_net876
*148 clknet_1_0__leaf_net877
*149 clknet_1_0__leaf_net893
*150 clknet_1_0__leaf_net894
*151 clknet_1_0__leaf_net895
*152 clknet_1_0__leaf_net911
*153 clknet_1_0__leaf_net912
*154 clknet_1_0__leaf_net913
*155 clknet_1_0__leaf_net929
*156 clknet_1_0__leaf_net930
*157 clknet_1_0__leaf_net931
*158 clknet_1_0__leaf_net969
*159 clknet_1_0__leaf_net974
*160 clknet_1_0__leaf_net983
*161 clknet_1_0__leaf_net985
*162 clknet_1_1__leaf_net221
*163 clknet_1_1__leaf_net292
*164 clknet_1_1__leaf_net315
*165 clknet_1_1__leaf_net329
*166 clknet_1_1__leaf_net338
*167 clknet_1_1__leaf_net346
*168 clknet_1_1__leaf_net353
*169 clknet_1_1__leaf_net354
*170 clknet_1_1__leaf_net361
*171 clknet_1_1__leaf_net420
*172 clknet_1_1__leaf_net424
*173 clknet_1_1__leaf_net427
*174 clknet_1_1__leaf_net436
*175 clknet_1_1__leaf_net447
*176 clknet_1_1__leaf_net448
*177 clknet_1_1__leaf_net449
*178 clknet_1_1__leaf_net451
*179 clknet_1_1__leaf_net452
*180 clknet_1_1__leaf_net457
*181 clknet_1_1__leaf_net458
*182 clknet_1_1__leaf_net463
*183 clknet_1_1__leaf_net464
*184 clknet_1_1__leaf_net481
*185 clknet_1_1__leaf_net546
*186 clknet_1_1__leaf_net567
*187 clknet_1_1__leaf_net593
*188 clknet_1_1__leaf_net605
*189 clknet_1_1__leaf_net609
*190 clknet_1_1__leaf_net707
*191 clknet_1_1__leaf_net709
*192 clknet_1_1__leaf_net719
*193 clknet_1_1__leaf_net821
*194 clknet_1_1__leaf_net823
*195 clknet_1_1__leaf_net830
*196 clknet_1_1__leaf_net854
*197 clknet_1_1__leaf_net855
*198 clknet_1_1__leaf_net856
*199 clknet_1_1__leaf_net875
*200 clknet_1_1__leaf_net876
*201 clknet_1_1__leaf_net877
*202 clknet_1_1__leaf_net893
*203 clknet_1_1__leaf_net894
*204 clknet_1_1__leaf_net895
*205 clknet_1_1__leaf_net911
*206 clknet_1_1__leaf_net912
*207 clknet_1_1__leaf_net913
*208 clknet_1_1__leaf_net929
*209 clknet_1_1__leaf_net930
*210 clknet_1_1__leaf_net931
*211 clknet_1_1__leaf_net969
*212 clknet_1_1__leaf_net974
*213 clknet_1_1__leaf_net983
*214 clknet_1_1__leaf_net985
*215 clknet_4_0_0_clk
*216 clknet_4_10_0_clk
*217 clknet_4_11_0_clk
*218 clknet_4_12_0_clk
*219 clknet_4_13_0_clk
*220 clknet_4_14_0_clk
*221 clknet_4_15_0_clk
*222 clknet_4_1_0_clk
*223 clknet_4_2_0_clk
*224 clknet_4_3_0_clk
*225 clknet_4_4_0_clk
*226 clknet_4_5_0_clk
*227 clknet_4_6_0_clk
*228 clknet_4_7_0_clk
*229 clknet_4_8_0_clk
*230 clknet_4_9_0_clk
*231 net0
*232 net1
*233 net10
*234 net100
*235 net1000
*236 net1001
*237 net1002
*238 net1003
*239 net1004
*240 net1005
*241 net1006
*242 net1007
*243 net1008
*244 net1009
*245 net101
*246 net1010
*247 net1011
*248 net1012
*249 net1013
*250 net1014
*251 net1015
*252 net1016
*253 net1017
*254 net1018
*255 net1019
*256 net102
*257 net1020
*258 net1021
*259 net1022
*260 net1023
*261 net1024
*262 net1025
*263 net1026
*264 net1027
*265 net1028
*266 net1029
*267 net103
*268 net1030
*269 net1031
*270 net1032
*271 net1033
*272 net1034
*273 net1035
*274 net1036
*275 net1037
*276 net1038
*277 net1039
*278 net104
*279 net1040
*280 net1041
*281 net1042
*282 net1043
*283 net1044
*284 net1045
*285 net1046
*286 net1047
*287 net1048
*288 net1049
*289 net105
*290 net1050
*291 net1051
*292 net1052
*293 net1053
*294 net1054
*295 net1055
*296 net1056
*297 net1057
*298 net1058
*299 net1059
*300 net106
*301 net1060
*302 net1061
*303 net1062
*304 net1063
*305 net1064
*306 net1065
*307 net1066
*308 net1067
*309 net1068
*310 net1069
*311 net107
*312 net1070
*313 net1071
*314 net108
*315 net109
*316 net11
*317 net110
*318 net111
*319 net112
*320 net113
*321 net114
*322 net115
*323 net116
*324 net117
*325 net118
*326 net119
*327 net12
*328 net120
*329 net121
*330 net122
*331 net123
*332 net124
*333 net125
*334 net126
*335 net127
*336 net128
*337 net129
*338 net13
*339 net130
*340 net131
*341 net132
*342 net133
*343 net134
*344 net135
*345 net136
*346 net137
*347 net138
*348 net139
*349 net14
*350 net140
*351 net141
*352 net142
*353 net143
*354 net144
*355 net145
*356 net146
*357 net147
*358 net148
*359 net149
*360 net15
*361 net150
*362 net151
*363 net152
*364 net153
*365 net154
*366 net155
*367 net156
*368 net157
*369 net158
*370 net159
*371 net16
*372 net160
*373 net161
*374 net162
*375 net163
*376 net164
*377 net165
*378 net166
*379 net167
*380 net168
*381 net169
*382 net17
*383 net170
*384 net171
*385 net172
*386 net173
*387 net174
*388 net175
*389 net176
*390 net177
*391 net178
*392 net179
*393 net18
*394 net180
*395 net181
*396 net182
*397 net183
*398 net184
*399 net185
*400 net186
*401 net187
*402 net188
*403 net189
*404 net19
*405 net190
*406 net191
*407 net192
*408 net193
*409 net194
*410 net195
*411 net196
*412 net197
*413 net198
*414 net199
*415 net2
*416 net20
*417 net200
*418 net201
*419 net202
*420 net203
*421 net204
*422 net205
*423 net206
*424 net207
*425 net208
*426 net209
*427 net21
*428 net210
*429 net211
*430 net212
*431 net213
*432 net214
*433 net215
*434 net216
*435 net217
*436 net218
*437 net219
*438 net22
*439 net220
*440 net221
*441 net222
*442 net223
*443 net224
*444 net225
*445 net226
*446 net227
*447 net228
*448 net229
*449 net23
*450 net230
*451 net231
*452 net232
*453 net233
*454 net234
*455 net235
*456 net236
*457 net237
*458 net238
*459 net239
*460 net24
*461 net240
*462 net241
*463 net242
*464 net243
*465 net244
*466 net245
*467 net246
*468 net247
*469 net248
*470 net249
*471 net25
*472 net250
*473 net251
*474 net252
*475 net253
*476 net254
*477 net255
*478 net256
*479 net257
*480 net258
*481 net259
*482 net26
*483 net260
*484 net261
*485 net262
*486 net263
*487 net264
*488 net265
*489 net266
*490 net267
*491 net268
*492 net269
*493 net27
*494 net270
*495 net271
*496 net272
*497 net273
*498 net274
*499 net275
*500 net276
*501 net277
*502 net278
*503 net279
*504 net28
*505 net280
*506 net281
*507 net282
*508 net283
*509 net284
*510 net285
*511 net286
*512 net287
*513 net288
*514 net289
*515 net29
*516 net290
*517 net291
*518 net292
*519 net293
*520 net294
*521 net295
*522 net296
*523 net297
*524 net298
*525 net299
*526 net3
*527 net30
*528 net300
*529 net301
*530 net302
*531 net303
*532 net304
*533 net305
*534 net306
*535 net307
*536 net308
*537 net309
*538 net31
*539 net310
*540 net311
*541 net312
*542 net313
*543 net314
*544 net315
*545 net316
*546 net317
*547 net318
*548 net319
*549 net32
*550 net320
*551 net321
*552 net322
*553 net323
*554 net324
*555 net325
*556 net326
*557 net327
*558 net328
*559 net329
*560 net33
*561 net330
*562 net331
*563 net332
*564 net333
*565 net334
*566 net335
*567 net336
*568 net337
*569 net338
*570 net339
*571 net34
*572 net340
*573 net341
*574 net342
*575 net343
*576 net344
*577 net345
*578 net346
*579 net347
*580 net348
*581 net349
*582 net35
*583 net350
*584 net351
*585 net352
*586 net353
*587 net354
*588 net355
*589 net356
*590 net357
*591 net358
*592 net359
*593 net36
*594 net360
*595 net361
*596 net362
*597 net363
*598 net364
*599 net365
*600 net366
*601 net367
*602 net368
*603 net369
*604 net37
*605 net370
*606 net371
*607 net372
*608 net373
*609 net374
*610 net375
*611 net376
*612 net377
*613 net378
*614 net379
*615 net38
*616 net380
*617 net381
*618 net382
*619 net383
*620 net384
*621 net385
*622 net386
*623 net387
*624 net388
*625 net389
*626 net39
*627 net390
*628 net391
*629 net392
*630 net393
*631 net394
*632 net395
*633 net396
*634 net397
*635 net398
*636 net399
*637 net4
*638 net40
*639 net400
*640 net401
*641 net402
*642 net403
*643 net404
*644 net405
*645 net406
*646 net407
*647 net408
*648 net409
*649 net41
*650 net410
*651 net411
*652 net412
*653 net413
*654 net414
*655 net415
*656 net416
*657 net417
*658 net418
*659 net419
*660 net42
*661 net420
*662 net421
*663 net422
*664 net423
*665 net424
*666 net425
*667 net426
*668 net427
*669 net428
*670 net429
*671 net43
*672 net430
*673 net431
*674 net432
*675 net433
*676 net434
*677 net435
*678 net436
*679 net437
*680 net438
*681 net439
*682 net44
*683 net440
*684 net441
*685 net442
*686 net443
*687 net444
*688 net445
*689 net446
*690 net447
*691 net448
*692 net449
*693 net45
*694 net450
*695 net451
*696 net452
*697 net453
*698 net454
*699 net455
*700 net456
*701 net457
*702 net458
*703 net459
*704 net46
*705 net460
*706 net461
*707 net462
*708 net463
*709 net464
*710 net465
*711 net466
*712 net467
*713 net468
*714 net469
*715 net47
*716 net470
*717 net471
*718 net472
*719 net473
*720 net474
*721 net475
*722 net476
*723 net477
*724 net478
*725 net479
*726 net48
*727 net480
*728 net481
*729 net482
*730 net483
*731 net484
*732 net485
*733 net486
*734 net487
*735 net488
*736 net489
*737 net49
*738 net490
*739 net491
*740 net492
*741 net493
*742 net494
*743 net495
*744 net496
*745 net497
*746 net498
*747 net499
*748 net5
*749 net50
*750 net500
*751 net501
*752 net502
*753 net503
*754 net504
*755 net505
*756 net506
*757 net507
*758 net508
*759 net509
*760 net51
*761 net510
*762 net511
*763 net512
*764 net513
*765 net514
*766 net515
*767 net516
*768 net517
*769 net518
*770 net519
*771 net52
*772 net520
*773 net521
*774 net522
*775 net523
*776 net524
*777 net525
*778 net526
*779 net527
*780 net528
*781 net529
*782 net53
*783 net530
*784 net531
*785 net532
*786 net533
*787 net534
*788 net535
*789 net536
*790 net537
*791 net538
*792 net539
*793 net54
*794 net540
*795 net541
*796 net542
*797 net543
*798 net544
*799 net545
*800 net546
*801 net547
*802 net548
*803 net549
*804 net55
*805 net550
*806 net551
*807 net552
*808 net553
*809 net554
*810 net555
*811 net556
*812 net557
*813 net558
*814 net559
*815 net56
*816 net560
*817 net561
*818 net562
*819 net563
*820 net564
*821 net565
*822 net566
*823 net567
*824 net568
*825 net569
*826 net57
*827 net570
*828 net571
*829 net572
*830 net573
*831 net574
*832 net575
*833 net576
*834 net577
*835 net578
*836 net579
*837 net58
*838 net580
*839 net581
*840 net582
*841 net583
*842 net584
*843 net585
*844 net586
*845 net587
*846 net588
*847 net589
*848 net59
*849 net590
*850 net591
*851 net592
*852 net593
*853 net594
*854 net595
*855 net596
*856 net597
*857 net598
*858 net599
*859 net6
*860 net60
*861 net600
*862 net601
*863 net602
*864 net603
*865 net604
*866 net605
*867 net606
*868 net607
*869 net608
*870 net609
*871 net61
*872 net610
*873 net611
*874 net612
*875 net613
*876 net614
*877 net615
*878 net616
*879 net617
*880 net618
*881 net619
*882 net62
*883 net620
*884 net621
*885 net622
*886 net623
*887 net624
*888 net625
*889 net626
*890 net627
*891 net628
*892 net629
*893 net63
*894 net630
*895 net631
*896 net632
*897 net633
*898 net634
*899 net635
*900 net636
*901 net637
*902 net638
*903 net639
*904 net64
*905 net640
*906 net641
*907 net642
*908 net643
*909 net644
*910 net645
*911 net646
*912 net647
*913 net648
*914 net649
*915 net65
*916 net650
*917 net651
*918 net652
*919 net653
*920 net654
*921 net655
*922 net656
*923 net657
*924 net658
*925 net659
*926 net66
*927 net660
*928 net661
*929 net662
*930 net663
*931 net664
*932 net665
*933 net666
*934 net667
*935 net668
*936 net669
*937 net67
*938 net670
*939 net671
*940 net672
*941 net673
*942 net674
*943 net675
*944 net676
*945 net677
*946 net678
*947 net679
*948 net68
*949 net680
*950 net681
*951 net682
*952 net683
*953 net684
*954 net685
*955 net686
*956 net687
*957 net688
*958 net689
*959 net69
*960 net690
*961 net691
*962 net692
*963 net693
*964 net694
*965 net695
*966 net696
*967 net697
*968 net698
*969 net699
*970 net7
*971 net70
*972 net700
*973 net701
*974 net702
*975 net703
*976 net704
*977 net705
*978 net706
*979 net707
*980 net708
*981 net709
*982 net71
*983 net710
*984 net711
*985 net712
*986 net713
*987 net714
*988 net715
*989 net716
*990 net717
*991 net718
*992 net719
*993 net72
*994 net720
*995 net721
*996 net722
*997 net723
*998 net724
*999 net725
*1000 net726
*1001 net727
*1002 net728
*1003 net729
*1004 net73
*1005 net730
*1006 net731
*1007 net732
*1008 net733
*1009 net734
*1010 net735
*1011 net736
*1012 net737
*1013 net738
*1014 net739
*1015 net74
*1016 net740
*1017 net741
*1018 net742
*1019 net743
*1020 net744
*1021 net745
*1022 net746
*1023 net747
*1024 net748
*1025 net749
*1026 net75
*1027 net750
*1028 net751
*1029 net752
*1030 net753
*1031 net754
*1032 net755
*1033 net756
*1034 net757
*1035 net758
*1036 net759
*1037 net76
*1038 net760
*1039 net761
*1040 net762
*1041 net763
*1042 net764
*1043 net765
*1044 net766
*1045 net767
*1046 net768
*1047 net769
*1048 net77
*1049 net770
*1050 net771
*1051 net772
*1052 net773
*1053 net774
*1054 net775
*1055 net776
*1056 net777
*1057 net778
*1058 net779
*1059 net78
*1060 net780
*1061 net781
*1062 net782
*1063 net783
*1064 net784
*1065 net785
*1066 net786
*1067 net787
*1068 net788
*1069 net789
*1070 net79
*1071 net790
*1072 net791
*1073 net792
*1074 net793
*1075 net794
*1076 net795
*1077 net796
*1078 net797
*1079 net798
*1080 net799
*1081 net8
*1082 net80
*1083 net800
*1084 net801
*1085 net802
*1086 net803
*1087 net804
*1088 net805
*1089 net806
*1090 net807
*1091 net808
*1092 net809
*1093 net81
*1094 net810
*1095 net811
*1096 net812
*1097 net813
*1098 net814
*1099 net815
*1100 net816
*1101 net817
*1102 net818
*1103 net819
*1104 net82
*1105 net820
*1106 net821
*1107 net822
*1108 net823
*1109 net824
*1110 net825
*1111 net826
*1112 net827
*1113 net828
*1114 net829
*1115 net83
*1116 net830
*1117 net831
*1118 net832
*1119 net833
*1120 net834
*1121 net835
*1122 net836
*1123 net837
*1124 net838
*1125 net839
*1126 net84
*1127 net840
*1128 net841
*1129 net842
*1130 net843
*1131 net844
*1132 net845
*1133 net846
*1134 net847
*1135 net848
*1136 net849
*1137 net85
*1138 net850
*1139 net851
*1140 net852
*1141 net853
*1142 net854
*1143 net855
*1144 net856
*1145 net857
*1146 net858
*1147 net859
*1148 net86
*1149 net860
*1150 net861
*1151 net862
*1152 net863
*1153 net864
*1154 net865
*1155 net866
*1156 net867
*1157 net868
*1158 net869
*1159 net87
*1160 net870
*1161 net871
*1162 net872
*1163 net873
*1164 net874
*1165 net875
*1166 net876
*1167 net877
*1168 net878
*1169 net879
*1170 net88
*1171 net880
*1172 net881
*1173 net882
*1174 net883
*1175 net884
*1176 net885
*1177 net886
*1178 net887
*1179 net888
*1180 net889
*1181 net89
*1182 net890
*1183 net891
*1184 net892
*1185 net893
*1186 net894
*1187 net895
*1188 net896
*1189 net897
*1190 net898
*1191 net899
*1192 net9
*1193 net90
*1194 net900
*1195 net901
*1196 net902
*1197 net903
*1198 net904
*1199 net905
*1200 net906
*1201 net907
*1202 net908
*1203 net909
*1204 net91
*1205 net910
*1206 net911
*1207 net912
*1208 net913
*1209 net914
*1210 net915
*1211 net916
*1212 net917
*1213 net918
*1214 net919
*1215 net92
*1216 net920
*1217 net921
*1218 net922
*1219 net923
*1220 net924
*1221 net925
*1222 net926
*1223 net927
*1224 net928
*1225 net929
*1226 net93
*1227 net930
*1228 net931
*1229 net932
*1230 net933
*1231 net934
*1232 net935
*1233 net936
*1234 net937
*1235 net938
*1236 net939
*1237 net94
*1238 net940
*1239 net941
*1240 net942
*1241 net943
*1242 net944
*1243 net945
*1244 net946
*1245 net947
*1246 net948
*1247 net949
*1248 net95
*1249 net950
*1250 net951
*1251 net952
*1252 net953
*1253 net954
*1254 net955
*1255 net956
*1256 net957
*1257 net958
*1258 net959
*1259 net96
*1260 net960
*1261 net961
*1262 net962
*1263 net963
*1264 net964
*1265 net965
*1266 net966
*1267 net967
*1268 net968
*1269 net969
*1270 net97
*1271 net970
*1272 net971
*1273 net972
*1274 net973
*1275 net974
*1276 net975
*1277 net976
*1278 net977
*1279 net978
*1280 net979
*1281 net98
*1282 net980
*1283 net981
*1284 net982
*1285 net983
*1286 net984
*1287 net985
*1288 net986
*1289 net987
*1290 net988
*1291 net989
*1292 net99
*1293 net990
*1294 net991
*1295 net992
*1296 net993
*1297 net994
*1298 net995
*1299 net996
*1300 net997
*1301 net998
*1302 net999
*1303 ANTENNA_c100_A
*1304 ANTENNA_c100_X
*1305 ANTENNA_c104_X
*1306 ANTENNA_c105_X
*1307 ANTENNA_c106_B
*1308 ANTENNA_c108_B
*1309 ANTENNA_c108_X
*1310 ANTENNA_c109_A3
*1311 ANTENNA_c109_S1
*1312 ANTENNA_c111_A
*1313 ANTENNA_c111_B
*1314 ANTENNA_c113_A
*1315 ANTENNA_c114_A
*1316 ANTENNA_c115_A
*1317 ANTENNA_c115_B
*1318 ANTENNA_c116_A
*1319 ANTENNA_c116_B
*1320 ANTENNA_c118_B
*1321 ANTENNA_c120_X
*1322 ANTENNA_c121_A
*1323 ANTENNA_c122_X
*1324 ANTENNA_c123_X
*1325 ANTENNA_c125_A0
*1326 ANTENNA_c125_A2
*1327 ANTENNA_c125_A3
*1328 ANTENNA_c125_S1
*1329 ANTENNA_c126_X
*1330 ANTENNA_c127_A3
*1331 ANTENNA_c129_B
*1332 ANTENNA_c130_B
*1333 ANTENNA_c131_A3
*1334 ANTENNA_c131_S1
*1335 ANTENNA_c132_A
*1336 ANTENNA_c132_B
*1337 ANTENNA_c133_A
*1338 ANTENNA_c133_B
*1339 ANTENNA_c133_X
*1340 ANTENNA_c134_A
*1341 ANTENNA_c134_B
*1342 ANTENNA_c134_X
*1343 ANTENNA_c135_B
*1344 ANTENNA_c135_X
*1345 ANTENNA_c136_A
*1346 ANTENNA_c136_B
*1347 ANTENNA_c136_C
*1348 ANTENNA_c137_B
*1349 ANTENNA_c138_A
*1350 ANTENNA_c138_B
*1351 ANTENNA_c139_B
*1352 ANTENNA_c139_X
*1353 ANTENNA_c140_A
*1354 ANTENNA_c140_B
*1355 ANTENNA_c141_A
*1356 ANTENNA_c141_X
*1357 ANTENNA_c142_D_N
*1358 ANTENNA_c142_X
*1359 ANTENNA_c143_C
*1360 ANTENNA_c144_B
*1361 ANTENNA_c144_X
*1362 ANTENNA_c145_A
*1363 ANTENNA_c145_X
*1364 ANTENNA_c146_A2
*1365 ANTENNA_c146_C1
*1366 ANTENNA_c146_X
*1367 ANTENNA_c147_B1
*1368 ANTENNA_c148_A1
*1369 ANTENNA_c148_A2
*1370 ANTENNA_c148_X
*1371 ANTENNA_c149_B
*1372 ANTENNA_c149_C
*1373 ANTENNA_c149_X
*1374 ANTENNA_c150_A
*1375 ANTENNA_c150_X
*1376 ANTENNA_c151_A
*1377 ANTENNA_c151_B
*1378 ANTENNA_c151_C
*1379 ANTENNA_c152_A0
*1380 ANTENNA_c152_A3
*1381 ANTENNA_c152_S0
*1382 ANTENNA_c152_S1
*1383 ANTENNA_c152_X
*1384 ANTENNA_c153_A1
*1385 ANTENNA_c153_S0
*1386 ANTENNA_c153_S1
*1387 ANTENNA_c153_X
*1388 ANTENNA_c154_A
*1389 ANTENNA_c154_X
*1390 ANTENNA_c155_A
*1391 ANTENNA_c155_B
*1392 ANTENNA_c155_X
*1393 ANTENNA_c156_A
*1394 ANTENNA_c157_A
*1395 ANTENNA_c158_A
*1396 ANTENNA_c158_B
*1397 ANTENNA_c158_C_N
*1398 ANTENNA_c158_D_N
*1399 ANTENNA_c159_A
*1400 ANTENNA_c159_X
*1401 ANTENNA_c160_A
*1402 ANTENNA_c160_B
*1403 ANTENNA_c160_X
*1404 ANTENNA_c161_A
*1405 ANTENNA_c161_B
*1406 ANTENNA_c161_C_N
*1407 ANTENNA_c161_D_N
*1408 ANTENNA_c162_X
*1409 ANTENNA_c163_B
*1410 ANTENNA_c164_A1
*1411 ANTENNA_c164_A3
*1412 ANTENNA_c165_B
*1413 ANTENNA_c165_D_N
*1414 ANTENNA_c166_A2
*1415 ANTENNA_c166_B1
*1416 ANTENNA_c166_C1
*1417 ANTENNA_c167_D_N
*1418 ANTENNA_c168_A
*1419 ANTENNA_c168_C
*1420 ANTENNA_c169_A
*1421 ANTENNA_c169_B
*1422 ANTENNA_c170_B1
*1423 ANTENNA_c171_B
*1424 ANTENNA_c171_D_N
*1425 ANTENNA_c172_C_N
*1426 ANTENNA_c172_D_N
*1427 ANTENNA_c173_A2
*1428 ANTENNA_c173_D1
*1429 ANTENNA_c175_B
*1430 ANTENNA_c175_X
*1431 ANTENNA_c176_B
*1432 ANTENNA_c179_A
*1433 ANTENNA_c179_B
*1434 ANTENNA_c181_C
*1435 ANTENNA_c181_X
*1436 ANTENNA_c185_A
*1437 ANTENNA_c185_B
*1438 ANTENNA_c185_X
*1439 ANTENNA_c186_B
*1440 ANTENNA_c186_X
*1441 ANTENNA_c187_A0
*1442 ANTENNA_c187_A2
*1443 ANTENNA_c187_S0
*1444 ANTENNA_c188_S1
*1445 ANTENNA_c189_A2
*1446 ANTENNA_c189_C1
*1447 ANTENNA_c190_A2
*1448 ANTENNA_c190_B1
*1449 ANTENNA_c190_X
*1450 ANTENNA_c195_A0
*1451 ANTENNA_c195_A2
*1452 ANTENNA_c196_A0
*1453 ANTENNA_c197_A1
*1454 ANTENNA_c197_A2
*1455 ANTENNA_c198_B
*1456 ANTENNA_c199_B
*1457 ANTENNA_c199_X
*1458 ANTENNA_c200_A
*1459 ANTENNA_c200_X
*1460 ANTENNA_c201_A
*1461 ANTENNA_c201_B
*1462 ANTENNA_c202_B
*1463 ANTENNA_c202_X
*1464 ANTENNA_c203_A
*1465 ANTENNA_c205_CLK
*1466 ANTENNA_c205_D
*1467 ANTENNA_c205_SCE
*1468 ANTENNA_c207_X
*1469 ANTENNA_c208_B
*1470 ANTENNA_c208_C
*1471 ANTENNA_c209_B
*1472 ANTENNA_c209_C
*1473 ANTENNA_c209_X
*1474 ANTENNA_c210_A
*1475 ANTENNA_c210_B
*1476 ANTENNA_c210_C
*1477 ANTENNA_c211_X
*1478 ANTENNA_c213_A
*1479 ANTENNA_c215_C_N
*1480 ANTENNA_c215_D_N
*1481 ANTENNA_c215_X
*1482 ANTENNA_c216_A1
*1483 ANTENNA_c216_B1
*1484 ANTENNA_c216_C1
*1485 ANTENNA_c217_A0
*1486 ANTENNA_c217_A3
*1487 ANTENNA_c217_S0
*1488 ANTENNA_c218_B
*1489 ANTENNA_c218_C
*1490 ANTENNA_c218_X
*1491 ANTENNA_c219_A2
*1492 ANTENNA_c219_S0
*1493 ANTENNA_c219_S1
*1494 ANTENNA_c220_B
*1495 ANTENNA_c221_A
*1496 ANTENNA_c222_C_N
*1497 ANTENNA_c224_CLK_N
*1498 ANTENNA_c224_RESET_B
*1499 ANTENNA_c224_SCE
*1500 ANTENNA_c224_SET_B
*1501 ANTENNA_c227_A
*1502 ANTENNA_c227_B
*1503 ANTENNA_c227_X
*1504 ANTENNA_c228_B
*1505 ANTENNA_c230_B
*1506 ANTENNA_c230_C_N
*1507 ANTENNA_c231_CLK_N
*1508 ANTENNA_c231_SCE
*1509 ANTENNA_c232_A0
*1510 ANTENNA_c232_A3
*1511 ANTENNA_c232_S0
*1512 ANTENNA_c233_A
*1513 ANTENNA_c235_B
*1514 ANTENNA_c237_A0
*1515 ANTENNA_c237_A1
*1516 ANTENNA_c237_A2
*1517 ANTENNA_c237_S0
*1518 ANTENNA_c237_S1
*1519 ANTENNA_c237_X
*1520 ANTENNA_c239_B1
*1521 ANTENNA_c239_C1
*1522 ANTENNA_c240_C1
*1523 ANTENNA_c241_S0
*1524 ANTENNA_c242_B
*1525 ANTENNA_c242_X
*1526 ANTENNA_c243_A0
*1527 ANTENNA_c243_A2
*1528 ANTENNA_c243_S0
*1529 ANTENNA_c243_S1
*1530 ANTENNA_c246_B
*1531 ANTENNA_c246_D_N
*1532 ANTENNA_c247_A
*1533 ANTENNA_c247_C_N
*1534 ANTENNA_c249_A3
*1535 ANTENNA_c251_X
*1536 ANTENNA_c253_RESET_B
*1537 ANTENNA_c253_SCD
*1538 ANTENNA_c253_SCE
*1539 ANTENNA_c254_A2
*1540 ANTENNA_c254_B1
*1541 ANTENNA_c254_D1
*1542 ANTENNA_c255_Q
*1543 ANTENNA_c255_SCD
*1544 ANTENNA_c256_CLK
*1545 ANTENNA_c256_D
*1546 ANTENNA_c256_SCE
*1547 ANTENNA_c256_SET_B
*1548 ANTENNA_c257_S1
*1549 ANTENNA_c258_A2
*1550 ANTENNA_c258_A3
*1551 ANTENNA_c259_CLK_N
*1552 ANTENNA_c259_D
*1553 ANTENNA_c259_RESET_B
*1554 ANTENNA_c259_SCD
*1555 ANTENNA_c259_SCE
*1556 ANTENNA_c259_SET_B
*1557 ANTENNA_c262_B1
*1558 ANTENNA_c262_D1
*1559 ANTENNA_c263_A3
*1560 ANTENNA_c263_S1
*1561 ANTENNA_c264_B
*1562 ANTENNA_c266_X
*1563 ANTENNA_c267_A
*1564 ANTENNA_c267_B
*1565 ANTENNA_c267_X
*1566 ANTENNA_c268_A
*1567 ANTENNA_c268_B
*1568 ANTENNA_c270_B
*1569 ANTENNA_c270_X
*1570 ANTENNA_c271_A
*1571 ANTENNA_c271_B
*1572 ANTENNA_c272_A
*1573 ANTENNA_c272_B
*1574 ANTENNA_c275_B
*1575 ANTENNA_c276_A
*1576 ANTENNA_c278_X
*1577 ANTENNA_c279_B
*1578 ANTENNA_c279_C
*1579 ANTENNA_c27_B
*1580 ANTENNA_c280_B
*1581 ANTENNA_c281_A3
*1582 ANTENNA_c281_S0
*1583 ANTENNA_c281_S1
*1584 ANTENNA_c281_X
*1585 ANTENNA_c282_C_N
*1586 ANTENNA_c282_D_N
*1587 ANTENNA_c283_S0
*1588 ANTENNA_c283_S1
*1589 ANTENNA_c284_C
*1590 ANTENNA_c285_A1
*1591 ANTENNA_c285_S1
*1592 ANTENNA_c286_B
*1593 ANTENNA_c287_A
*1594 ANTENNA_c287_B
*1595 ANTENNA_c287_X
*1596 ANTENNA_c288_B
*1597 ANTENNA_c288_C_N
*1598 ANTENNA_c28_A
*1599 ANTENNA_c28_X
*1600 ANTENNA_c290_C
*1601 ANTENNA_c291_A
*1602 ANTENNA_c291_C
*1603 ANTENNA_c291_X
*1604 ANTENNA_c293_A
*1605 ANTENNA_c293_C
*1606 ANTENNA_c293_X
*1607 ANTENNA_c294_X
*1608 ANTENNA_c295_A
*1609 ANTENNA_c295_C
*1610 ANTENNA_c296_A
*1611 ANTENNA_c296_C_N
*1612 ANTENNA_c296_D_N
*1613 ANTENNA_c297_C_N
*1614 ANTENNA_c297_D_N
*1615 ANTENNA_c298_A
*1616 ANTENNA_c298_X
*1617 ANTENNA_c299_A
*1618 ANTENNA_c29_B
*1619 ANTENNA_c300_B1
*1620 ANTENNA_c300_C1
*1621 ANTENNA_c300_D1
*1622 ANTENNA_c303_B1
*1623 ANTENNA_c303_C1
*1624 ANTENNA_c303_D1
*1625 ANTENNA_c304_CLK
*1626 ANTENNA_c304_RESET_B
*1627 ANTENNA_c304_SCE
*1628 ANTENNA_c305_S1
*1629 ANTENNA_c305_X
*1630 ANTENNA_c307_A3
*1631 ANTENNA_c307_S1
*1632 ANTENNA_c308_A
*1633 ANTENNA_c308_B
*1634 ANTENNA_c308_C
*1635 ANTENNA_c308_X
*1636 ANTENNA_c30_B
*1637 ANTENNA_c30_X
*1638 ANTENNA_c310_A
*1639 ANTENNA_c310_B
*1640 ANTENNA_c310_C
*1641 ANTENNA_c310_X
*1642 ANTENNA_c311_X
*1643 ANTENNA_c312_A1
*1644 ANTENNA_c312_X
*1645 ANTENNA_c314_A
*1646 ANTENNA_c314_B
*1647 ANTENNA_c314_C_N
*1648 ANTENNA_c314_D_N
*1649 ANTENNA_c314_X
*1650 ANTENNA_c315_B
*1651 ANTENNA_c315_C
*1652 ANTENNA_c315_X
*1653 ANTENNA_c316_C
*1654 ANTENNA_c317_B
*1655 ANTENNA_c319_A1
*1656 ANTENNA_c319_S0
*1657 ANTENNA_c31_X
*1658 ANTENNA_c320_B
*1659 ANTENNA_c321_A
*1660 ANTENNA_c322_A1
*1661 ANTENNA_c322_S1
*1662 ANTENNA_c324_A1
*1663 ANTENNA_c324_A3
*1664 ANTENNA_c325_C
*1665 ANTENNA_c326_S0
*1666 ANTENNA_c326_S1
*1667 ANTENNA_c327_A3
*1668 ANTENNA_c327_S0
*1669 ANTENNA_c327_S1
*1670 ANTENNA_c328_A2
*1671 ANTENNA_c328_S0
*1672 ANTENNA_c329_A0
*1673 ANTENNA_c329_S0
*1674 ANTENNA_c32_B
*1675 ANTENNA_c330_B
*1676 ANTENNA_c330_X
*1677 ANTENNA_c331_A1
*1678 ANTENNA_c331_A2
*1679 ANTENNA_c331_B1
*1680 ANTENNA_c331_C1
*1681 ANTENNA_c333_A
*1682 ANTENNA_c333_X
*1683 ANTENNA_c335_B
*1684 ANTENNA_c337_CLK_N
*1685 ANTENNA_c337_RESET_B
*1686 ANTENNA_c337_SCD
*1687 ANTENNA_c337_SCE
*1688 ANTENNA_c338_A
*1689 ANTENNA_c339_B
*1690 ANTENNA_c33_X
*1691 ANTENNA_c340_C
*1692 ANTENNA_c341_A3
*1693 ANTENNA_c341_S0
*1694 ANTENNA_c341_S1
*1695 ANTENNA_c342_A1
*1696 ANTENNA_c342_S1
*1697 ANTENNA_c343_A
*1698 ANTENNA_c343_B
*1699 ANTENNA_c346_S0
*1700 ANTENNA_c348_B
*1701 ANTENNA_c348_C
*1702 ANTENNA_c349_X
*1703 ANTENNA_c34_B
*1704 ANTENNA_c350_D_N
*1705 ANTENNA_c351_A0
*1706 ANTENNA_c351_A3
*1707 ANTENNA_c351_S1
*1708 ANTENNA_c353_A
*1709 ANTENNA_c355_B
*1710 ANTENNA_c356_B
*1711 ANTENNA_c357_B
*1712 ANTENNA_c357_X
*1713 ANTENNA_c359_X
*1714 ANTENNA_c35_A
*1715 ANTENNA_c360_A0
*1716 ANTENNA_c360_A1
*1717 ANTENNA_c360_A2
*1718 ANTENNA_c365_A0
*1719 ANTENNA_c365_A2
*1720 ANTENNA_c365_A3
*1721 ANTENNA_c367_X
*1722 ANTENNA_c368_B
*1723 ANTENNA_c368_C_N
*1724 ANTENNA_c36_X
*1725 ANTENNA_c370_A3
*1726 ANTENNA_c370_S0
*1727 ANTENNA_c370_S1
*1728 ANTENNA_c371_CLK
*1729 ANTENNA_c371_D
*1730 ANTENNA_c371_SCE
*1731 ANTENNA_c372_A3
*1732 ANTENNA_c373_A
*1733 ANTENNA_c374_A3
*1734 ANTENNA_c374_S0
*1735 ANTENNA_c374_S1
*1736 ANTENNA_c375_CLK
*1737 ANTENNA_c375_SCD
*1738 ANTENNA_c376_C1
*1739 ANTENNA_c376_D1
*1740 ANTENNA_c377_CLK
*1741 ANTENNA_c377_SCD
*1742 ANTENNA_c377_SCE
*1743 ANTENNA_c377_SET_B
*1744 ANTENNA_c378_A1
*1745 ANTENNA_c378_A2
*1746 ANTENNA_c379_B
*1747 ANTENNA_c379_C_N
*1748 ANTENNA_c37_A
*1749 ANTENNA_c380_A0
*1750 ANTENNA_c380_A1
*1751 ANTENNA_c380_S0
*1752 ANTENNA_c381_CLK
*1753 ANTENNA_c381_Q
*1754 ANTENNA_c381_SCD
*1755 ANTENNA_c382_A0
*1756 ANTENNA_c382_A2
*1757 ANTENNA_c382_A3
*1758 ANTENNA_c383_D1
*1759 ANTENNA_c384_A1
*1760 ANTENNA_c384_A3
*1761 ANTENNA_c384_S1
*1762 ANTENNA_c385_A1
*1763 ANTENNA_c385_B1
*1764 ANTENNA_c385_C1
*1765 ANTENNA_c386_CLK
*1766 ANTENNA_c386_D
*1767 ANTENNA_c386_Q
*1768 ANTENNA_c387_A
*1769 ANTENNA_c387_C_N
*1770 ANTENNA_c388_A3
*1771 ANTENNA_c388_S1
*1772 ANTENNA_c389_A1
*1773 ANTENNA_c389_A3
*1774 ANTENNA_c38_A1
*1775 ANTENNA_c38_A3
*1776 ANTENNA_c38_S1
*1777 ANTENNA_c390_CLK_N
*1778 ANTENNA_c390_RESET_B
*1779 ANTENNA_c391_A1
*1780 ANTENNA_c391_C1
*1781 ANTENNA_c391_D1
*1782 ANTENNA_c392_CLK_N
*1783 ANTENNA_c393_A2
*1784 ANTENNA_c394_CLK
*1785 ANTENNA_c396_A
*1786 ANTENNA_c396_B
*1787 ANTENNA_c396_X
*1788 ANTENNA_c398_A
*1789 ANTENNA_c398_B
*1790 ANTENNA_c39_B1
*1791 ANTENNA_c39_C1
*1792 ANTENNA_c39_X
*1793 ANTENNA_c403_B
*1794 ANTENNA_c403_X
*1795 ANTENNA_c404_X
*1796 ANTENNA_c406_B
*1797 ANTENNA_c407_B
*1798 ANTENNA_c408_X
*1799 ANTENNA_c410_X
*1800 ANTENNA_c411_X
*1801 ANTENNA_c412_X
*1802 ANTENNA_c414_B
*1803 ANTENNA_c414_C
*1804 ANTENNA_c415_X
*1805 ANTENNA_c416_X
*1806 ANTENNA_c417_A3
*1807 ANTENNA_c417_S0
*1808 ANTENNA_c417_S1
*1809 ANTENNA_c418_B
*1810 ANTENNA_c419_B
*1811 ANTENNA_c41_A1
*1812 ANTENNA_c41_X
*1813 ANTENNA_c420_B
*1814 ANTENNA_c421_B
*1815 ANTENNA_c423_A
*1816 ANTENNA_c423_B
*1817 ANTENNA_c424_A
*1818 ANTENNA_c425_C
*1819 ANTENNA_c426_C
*1820 ANTENNA_c426_X
*1821 ANTENNA_c428_B
*1822 ANTENNA_c428_C
*1823 ANTENNA_c42_A1
*1824 ANTENNA_c42_A2
*1825 ANTENNA_c42_A3
*1826 ANTENNA_c42_S0
*1827 ANTENNA_c432_SCD
*1828 ANTENNA_c432_SCE
*1829 ANTENNA_c432_SET_B
*1830 ANTENNA_c433_A
*1831 ANTENNA_c433_C
*1832 ANTENNA_c434_B
*1833 ANTENNA_c436_A1
*1834 ANTENNA_c436_A2
*1835 ANTENNA_c437_S0