*SPEF "ieee 1481-1999"
*DESIGN "netlist_1"
*DATE "19:10:56 Wednesday August 14, 2024"
*VENDOR "The OpenROAD Project"
*PROGRAM "OpenROAD"
*VERSION "d423155d69de7f683a23f6916ead418a615ad4ad"
*DESIGN_FLOW "NAME_SCOPE LOCAL" "PIN_CAP NONE"
*DIVIDER /
*DELIMITER :
*BUS_DELIMITER []
*T_UNIT 1 NS
*C_UNIT 1 PF
*R_UNIT 1 OHM
*L_UNIT 1 HENRY

*NAME_MAP
*3 clk
*4 in0
*5 in1
*6 in10
*7 in11
*8 in12
*9 in13
*10 in14
*11 in15
*12 in16
*13 in17
*14 in18
*15 in19
*16 in2
*17 in20
*18 in21
*19 in22
*20 in23
*21 in24
*22 in25
*23 in26
*24 in27
*25 in28
*26 in29
*27 in3
*28 in30
*29 in31
*30 in32
*31 in33
*32 in34
*33 in35
*34 in36
*35 in37
*36 in38
*37 in39
*38 in4
*39 in40
*40 in41
*41 in42
*42 in43
*43 in44
*44 in45
*45 in46
*46 in47
*47 in48
*48 in49
*49 in5
*50 in50
*51 in51
*52 in52
*53 in53
*54 in54
*55 in55
*56 in56
*57 in57
*58 in58
*59 in59
*60 in6
*61 in60
*62 in61
*63 in62
*64 in63
*65 in64
*66 in65
*67 in66
*68 in67
*69 in68
*70 in69
*71 in7
*72 in70
*73 in71
*74 in72
*75 in73
*76 in74
*77 in75
*78 in76
*79 in77
*80 in78
*81 in79
*82 in8
*83 in80
*84 in81
*85 in82
*86 in83
*87 in84
*88 in85
*89 in86
*90 in87
*91 in88
*92 in89
*93 in9
*94 in90
*95 in91
*96 in92
*97 in93
*98 in94
*99 in95
*100 in96
*101 in97
*102 in98
*103 in99
*104 out0
*105 out1
*106 out10
*107 out11
*108 out12
*109 out13
*110 out14
*111 out15
*112 out16
*113 out17
*114 out18
*115 out19
*116 out2
*117 out20
*118 out21
*119 out22
*120 out23
*121 out24
*122 out25
*123 out26
*124 out27
*125 out28
*126 out29
*127 out3
*128 out30
*129 out31
*130 out32
*131 out33
*132 out34
*133 out35
*134 out36
*135 out37
*136 out38
*137 out39
*138 out4
*139 out40
*140 out41
*141 out42
*142 out43
*143 out44
*144 out45
*145 out46
*146 out47
*147 out48
*148 out49
*149 out5
*150 out50
*151 out51
*152 out52
*153 out53
*154 out54
*155 out55
*156 out56
*157 out57
*158 out58
*159 out59
*160 out6
*161 out60
*162 out61
*163 out62
*164 out63
*165 out64
*166 out65
*167 out66
*168 out67
*169 out68
*170 out69
*171 out7
*172 out70
*173 out71
*174 out72
*175 out73
*176 out74
*177 out75
*178 out76
*179 out77
*180 out78
*181 out79
*182 out8
*183 out80
*184 out81
*185 out82
*186 out83
*187 out84
*188 out85
*189 out86
*190 out87
*191 out88
*192 out89
*193 out9
*194 out90
*195 out91
*196 out92
*197 out93
*198 out94
*199 out95
*200 out96
*201 out97
*202 out98
*203 out99
*204 rst
*205 clknet_0_clk
*206 clknet_0_net506
*207 clknet_0_net561
*208 clknet_0_net562
*209 clknet_0_net563
*210 clknet_1_0__leaf_net506
*211 clknet_1_0__leaf_net561
*212 clknet_1_0__leaf_net562
*213 clknet_1_0__leaf_net563
*214 clknet_1_1__leaf_net506
*215 clknet_1_1__leaf_net561
*216 clknet_1_1__leaf_net562
*217 clknet_1_1__leaf_net563
*218 clknet_2_0__leaf_clk
*219 clknet_2_1__leaf_clk
*220 clknet_2_2__leaf_clk
*221 clknet_2_3__leaf_clk
*222 net0
*223 net1
*224 net10
*225 net100
*226 net1000
*227 net1001
*228 net1002
*229 net1003
*230 net1004
*231 net1005
*232 net1006
*233 net1007
*234 net1008
*235 net1009
*236 net101
*237 net1010
*238 net1011
*239 net1012
*240 net1013
*241 net1014
*242 net1015
*243 net1016
*244 net1017
*245 net1018
*246 net1019
*247 net102
*248 net1020
*249 net1021
*250 net1022
*251 net1023
*252 net1024
*253 net1025
*254 net1026
*255 net1027
*256 net1028
*257 net1029
*258 net103
*259 net1030
*260 net1031
*261 net1032
*262 net1033
*263 net1034
*264 net1035
*265 net1036
*266 net1037
*267 net1038
*268 net1039
*269 net104
*270 net1040
*271 net1041
*272 net1042
*273 net1043
*274 net1044
*275 net1045
*276 net1046
*277 net1047
*278 net1048
*279 net1049
*280 net105
*281 net1050
*282 net1051
*283 net1052
*284 net1053
*285 net1054
*286 net1055
*287 net1056
*288 net1057
*289 net1058
*290 net1059
*291 net106
*292 net1060
*293 net1061
*294 net1062
*295 net1063
*296 net1064
*297 net1065
*298 net1066
*299 net1067
*300 net1068
*301 net1069
*302 net107
*303 net1070
*304 net1071
*305 net1072
*306 net1073
*307 net1074
*308 net1075
*309 net1076
*310 net1077
*311 net1078
*312 net1079
*313 net108
*314 net1080
*315 net1081
*316 net1082
*317 net1083
*318 net1084
*319 net1085
*320 net1086
*321 net1087
*322 net1088
*323 net1089
*324 net109
*325 net1090
*326 net1091
*327 net1092
*328 net1093
*329 net1094
*330 net1095
*331 net1096
*332 net1097
*333 net1098
*334 net1099
*335 net11
*336 net110
*337 net1100
*338 net1101
*339 net1102
*340 net1103
*341 net1104
*342 net1105
*343 net1106
*344 net1107
*345 net1108
*346 net1109
*347 net111
*348 net1110
*349 net1111
*350 net1112
*351 net1113
*352 net1114
*353 net1115
*354 net1116
*355 net1117
*356 net1118
*357 net1119
*358 net112
*359 net1120
*360 net1121
*361 net1122
*362 net1123
*363 net1124
*364 net1125
*365 net1126
*366 net1127
*367 net1128
*368 net1129
*369 net113
*370 net1130
*371 net1131
*372 net1132
*373 net1133
*374 net1134
*375 net1135
*376 net1136
*377 net1137
*378 net1138
*379 net1139
*380 net114
*381 net1140
*382 net1141
*383 net1142
*384 net1143
*385 net1144
*386 net1145
*387 net1146
*388 net1147
*389 net1148
*390 net1149
*391 net115
*392 net1150
*393 net1151
*394 net1152
*395 net1153
*396 net1154
*397 net1155
*398 net1156
*399 net1157
*400 net1158
*401 net1159
*402 net116
*403 net1160
*404 net1161
*405 net1162
*406 net1163
*407 net117
*408 net118
*409 net119
*410 net12
*411 net120
*412 net121
*413 net122
*414 net123
*415 net124
*416 net125
*417 net126
*418 net127
*419 net128
*420 net129
*421 net13
*422 net130
*423 net131
*424 net132
*425 net133
*426 net134
*427 net135
*428 net136
*429 net137
*430 net138
*431 net139
*432 net14
*433 net140
*434 net141
*435 net142
*436 net143
*437 net144
*438 net145
*439 net146
*440 net147
*441 net148
*442 net149
*443 net15
*444 net150
*445 net151
*446 net152
*447 net153
*448 net154
*449 net155
*450 net156
*451 net157
*452 net158
*453 net159
*454 net16
*455 net160
*456 net161
*457 net162
*458 net163
*459 net164
*460 net165
*461 net166
*462 net167
*463 net168
*464 net169
*465 net17
*466 net170
*467 net171
*468 net172
*469 net173
*470 net174
*471 net175
*472 net176
*473 net177
*474 net178
*475 net179
*476 net18
*477 net180
*478 net181
*479 net182
*480 net183
*481 net184
*482 net185
*483 net186
*484 net187
*485 net188
*486 net189
*487 net19
*488 net190
*489 net191
*490 net192
*491 net193
*492 net194
*493 net195
*494 net196
*495 net197
*496 net198
*497 net199
*498 net2
*499 net20
*500 net200
*501 net201
*502 net202
*503 net203
*504 net204
*505 net205
*506 net206
*507 net207
*508 net208
*509 net209
*510 net21
*511 net210
*512 net211
*513 net212
*514 net213
*515 net214
*516 net215
*517 net216
*518 net217
*519 net218
*520 net219
*521 net22
*522 net220
*523 net221
*524 net222
*525 net223
*526 net224
*527 net225
*528 net226
*529 net227
*530 net228
*531 net229
*532 net23
*533 net230
*534 net231
*535 net232
*536 net233
*537 net234
*538 net235
*539 net236
*540 net237
*541 net238
*542 net239
*543 net24
*544 net240
*545 net241
*546 net242
*547 net243
*548 net244
*549 net245
*550 net246
*551 net247
*552 net248
*553 net249
*554 net25
*555 net250
*556 net251
*557 net252
*558 net253
*559 net254
*560 net255
*561 net256
*562 net257
*563 net258
*564 net259
*565 net26
*566 net260
*567 net261
*568 net262
*569 net263
*570 net264
*571 net265
*572 net266
*573 net267
*574 net268
*575 net269
*576 net27
*577 net270
*578 net271
*579 net272
*580 net273
*581 net274
*582 net275
*583 net276
*584 net277
*585 net278
*586 net279
*587 net28
*588 net280
*589 net281
*590 net282
*591 net283
*592 net284
*593 net285
*594 net286
*595 net287
*596 net288
*597 net289
*598 net29
*599 net290
*600 net291
*601 net292
*602 net293
*603 net294
*604 net295
*605 net296
*606 net297
*607 net298
*608 net299
*609 net3
*610 net30
*611 net300
*612 net301
*613 net302
*614 net303
*615 net304
*616 net305
*617 net306
*618 net307
*619 net308
*620 net309
*621 net31
*622 net310
*623 net311
*624 net312
*625 net313
*626 net314
*627 net315
*628 net316
*629 net317
*630 net318
*631 net319
*632 net32
*633 net320
*634 net321
*635 net322
*636 net323
*637 net324
*638 net325
*639 net326
*640 net327
*641 net328
*642 net329
*643 net33
*644 net330
*645 net331
*646 net332
*647 net333
*648 net334
*649 net335
*650 net336
*651 net337
*652 net338
*653 net339
*654 net34
*655 net340
*656 net341
*657 net342
*658 net343
*659 net344
*660 net345
*661 net346
*662 net347
*663 net348
*664 net349
*665 net35
*666 net350
*667 net351
*668 net352
*669 net353
*670 net354
*671 net355
*672 net356
*673 net357
*674 net358
*675 net359
*676 net36
*677 net360
*678 net361
*679 net362
*680 net363
*681 net364
*682 net365
*683 net366
*684 net367
*685 net368
*686 net369
*687 net37
*688 net370
*689 net371
*690 net372
*691 net373
*692 net374
*693 net375
*694 net376
*695 net377
*696 net378
*697 net379
*698 net38
*699 net380
*700 net381
*701 net382
*702 net383
*703 net384
*704 net385
*705 net386
*706 net387
*707 net388
*708 net389
*709 net39
*710 net390
*711 net391
*712 net392
*713 net393
*714 net394
*715 net395
*716 net396
*717 net397
*718 net398
*719 net399
*720 net4
*721 net40
*722 net400
*723 net401
*724 net402
*725 net403
*726 net404
*727 net405
*728 net406
*729 net407
*730 net408
*731 net409
*732 net41
*733 net410
*734 net411
*735 net412
*736 net413
*737 net414
*738 net415
*739 net416
*740 net417
*741 net418
*742 net419
*743 net42
*744 net420
*745 net421
*746 net422
*747 net423
*748 net424
*749 net425
*750 net426
*751 net427
*752 net428
*753 net429
*754 net43
*755 net430
*756 net431
*757 net432
*758 net433
*759 net434
*760 net435
*761 net436
*762 net437
*763 net438
*764 net439
*765 net44
*766 net440
*767 net441
*768 net442
*769 net443
*770 net444
*771 net445
*772 net446
*773 net447
*774 net448
*775 net449
*776 net45
*777 net450
*778 net451
*779 net452
*780 net453
*781 net454
*782 net455
*783 net456
*784 net457
*785 net458
*786 net459
*787 net46
*788 net460
*789 net461
*790 net462
*791 net463
*792 net464
*793 net465
*794 net466
*795 net467
*796 net468
*797 net469
*798 net47
*799 net470
*800 net471
*801 net472
*802 net473
*803 net474
*804 net475
*805 net476
*806 net477
*807 net478
*808 net479
*809 net48
*810 net480
*811 net481
*812 net482
*813 net483
*814 net484
*815 net485
*816 net486
*817 net487
*818 net488
*819 net489
*820 net49
*821 net490
*822 net491
*823 net492
*824 net493
*825 net494
*826 net495
*827 net496
*828 net497
*829 net498
*830 net499
*831 net5
*832 net50
*833 net500
*834 net501
*835 net502
*836 net503
*837 net504
*838 net505
*839 net506
*840 net507
*841 net508
*842 net509
*843 net51
*844 net510
*845 net511
*846 net512
*847 net513
*848 net514
*849 net515
*850 net516
*851 net517
*852 net518
*853 net519
*854 net52
*855 net520
*856 net521
*857 net522
*858 net523
*859 net524
*860 net525
*861 net526
*862 net527
*863 net528
*864 net529
*865 net53
*866 net530
*867 net531
*868 net532
*869 net533
*870 net534
*871 net535
*872 net536
*873 net537
*874 net538
*875 net539
*876 net54
*877 net540
*878 net541
*879 net542
*880 net543
*881 net544
*882 net545
*883 net546
*884 net547
*885 net548
*886 net549
*887 net55
*888 net550
*889 net551
*890 net552
*891 net553
*892 net554
*893 net555
*894 net556
*895 net557
*896 net558
*897 net559
*898 net56
*899 net560
*900 net561
*901 net562
*902 net563
*903 net564
*904 net565
*905 net566
*906 net567
*907 net568
*908 net569
*909 net57
*910 net570
*911 net571
*912 net572
*913 net573
*914 net574
*915 net575
*916 net576
*917 net577
*918 net578
*919 net579
*920 net58
*921 net580
*922 net581
*923 net582
*924 net583
*925 net584
*926 net585
*927 net586
*928 net587
*929 net588
*930 net589
*931 net59
*932 net590
*933 net591
*934 net592
*935 net593
*936 net594
*937 net595
*938 net596
*939 net597
*940 net598
*941 net599
*942 net6
*943 net60
*944 net600
*945 net601
*946 net602
*947 net603
*948 net604
*949 net605
*950 net606
*951 net607
*952 net608
*953 net609
*954 net61
*955 net610
*956 net611
*957 net612
*958 net613
*959 net614
*960 net615
*961 net616
*962 net617
*963 net618
*964 net619
*965 net62
*966 net620
*967 net621
*968 net622
*969 net623
*970 net624
*971 net625
*972 net626
*973 net627
*974 net628
*975 net629
*976 net63
*977 net630
*978 net631
*979 net632
*980 net633
*981 net634
*982 net635
*983 net636
*984 net637
*985 net638
*986 net639
*987 net64
*988 net640
*989 net641
*990 net642
*991 net643
*992 net644
*993 net645
*994 net646
*995 net647
*996 net648
*997 net649
*998 net65
*999 net650
*1000 net651
*1001 net652
*1002 net653
*1003 net654
*1004 net655
*1005 net656
*1006 net657
*1007 net658
*1008 net659
*1009 net66
*1010 net660
*1011 net661
*1012 net662
*1013 net663
*1014 net664
*1015 net665
*1016 net666
*1017 net667
*1018 net668
*1019 net669
*1020 net67
*1021 net670
*1022 net671
*1023 net672
*1024 net673
*1025 net674
*1026 net675
*1027 net676
*1028 net677
*1029 net678
*1030 net679
*1031 net68
*1032 net680
*1033 net681
*1034 net682
*1035 net683
*1036 net684
*1037 net685
*1038 net686
*1039 net687
*1040 net688
*1041 net689
*1042 net69
*1043 net690
*1044 net691
*1045 net692
*1046 net693
*1047 net694
*1048 net695
*1049 net696
*1050 net697
*1051 net698
*1052 net699
*1053 net7
*1054 net70
*1055 net700
*1056 net701
*1057 net702
*1058 net703
*1059 net704
*1060 net705
*1061 net706
*1062 net707
*1063 net708
*1064 net709
*1065 net71
*1066 net710
*1067 net711
*1068 net712
*1069 net713
*1070 net714
*1071 net715
*1072 net716
*1073 net717
*1074 net718
*1075 net719
*1076 net72
*1077 net720
*1078 net721
*1079 net722
*1080 net723
*1081 net724
*1082 net725
*1083 net726
*1084 net727
*1085 net728
*1086 net729
*1087 net73
*1088 net730
*1089 net731
*1090 net732
*1091 net733
*1092 net734
*1093 net735
*1094 net736
*1095 net737
*1096 net738
*1097 net739
*1098 net74
*1099 net740
*1100 net741
*1101 net742
*1102 net743
*1103 net744
*1104 net745
*1105 net746
*1106 net747
*1107 net748
*1108 net749
*1109 net75
*1110 net750
*1111 net751
*1112 net752
*1113 net753
*1114 net754
*1115 net755
*1116 net756
*1117 net757
*1118 net758
*1119 net759
*1120 net76
*1121 net760
*1122 net761
*1123 net762
*1124 net763
*1125 net764
*1126 net765
*1127 net766
*1128 net767
*1129 net768
*1130 net769
*1131 net77
*1132 net770
*1133 net771
*1134 net772
*1135 net773
*1136 net774
*1137 net775
*1138 net776
*1139 net777
*1140 net778
*1141 net779
*1142 net78
*1143 net780
*1144 net781
*1145 net782
*1146 net783
*1147 net784
*1148 net785
*1149 net786
*1150 net787
*1151 net788
*1152 net789
*1153 net79
*1154 net790
*1155 net791
*1156 net792
*1157 net793
*1158 net794
*1159 net795
*1160 net796
*1161 net797
*1162 net798
*1163 net799
*1164 net8
*1165 net80
*1166 net800
*1167 net801
*1168 net802
*1169 net803
*1170 net804
*1171 net805
*1172 net806
*1173 net807
*1174 net808
*1175 net809
*1176 net81
*1177 net810
*1178 net811
*1179 net812
*1180 net813
*1181 net814
*1182 net815
*1183 net816
*1184 net817
*1185 net818
*1186 net819
*1187 net82
*1188 net820
*1189 net821
*1190 net822
*1191 net823
*1192 net824
*1193 net825
*1194 net826
*1195 net827
*1196 net828
*1197 net829
*1198 net83
*1199 net830
*1200 net831
*1201 net832
*1202 net833
*1203 net834
*1204 net835
*1205 net836
*1206 net837
*1207 net838
*1208 net839
*1209 net84
*1210 net840
*1211 net841
*1212 net842
*1213 net843
*1214 net844
*1215 net845
*1216 net846
*1217 net847
*1218 net848
*1219 net849
*1220 net85
*1221 net850
*1222 net851
*1223 net852
*1224 net853
*1225 net854
*1226 net855
*1227 net856
*1228 net857
*1229 net858
*1230 net859
*1231 net86
*1232 net860
*1233 net861
*1234 net862
*1235 net863
*1236 net864
*1237 net865
*1238 net866
*1239 net867
*1240 net868
*1241 net869
*1242 net87
*1243 net870
*1244 net871
*1245 net872
*1246 net873
*1247 net874
*1248 net875
*1249 net876
*1250 net877
*1251 net878
*1252 net879
*1253 net88
*1254 net880
*1255 net881
*1256 net882
*1257 net883
*1258 net884
*1259 net885
*1260 net886
*1261 net887
*1262 net888
*1263 net889
*1264 net89
*1265 net890
*1266 net891
*1267 net892
*1268 net893
*1269 net894
*1270 net895
*1271 net896
*1272 net897
*1273 net898
*1274 net899
*1275 net9
*1276 net90
*1277 net900
*1278 net901
*1279 net902
*1280 net903
*1281 net904
*1282 net905
*1283 net906
*1284 net907
*1285 net908
*1286 net909
*1287 net91
*1288 net910
*1289 net911
*1290 net912
*1291 net913
*1292 net914
*1293 net915
*1294 net916
*1295 net917
*1296 net918
*1297 net919
*1298 net92
*1299 net920
*1300 net921
*1301 net922
*1302 net923
*1303 net924
*1304 net925
*1305 net926
*1306 net927
*1307 net928
*1308 net929
*1309 net93
*1310 net930
*1311 net931
*1312 net932
*1313 net933
*1314 net934
*1315 net935
*1316 net936
*1317 net937
*1318 net938
*1319 net939
*1320 net94
*1321 net940
*1322 net941
*1323 net942
*1324 net943
*1325 net944
*1326 net945
*1327 net946
*1328 net947
*1329 net948
*1330 net949
*1331 net95
*1332 net950
*1333 net951
*1334 net952
*1335 net953
*1336 net954
*1337 net955
*1338 net956
*1339 net957
*1340 net958
*1341 net959
*1342 net96
*1343 net960
*1344 net961
*1345 net962
*1346 net963
*1347 net964
*1348 net965
*1349 net966
*1350 net967
*1351 net968
*1352 net969
*1353 net97
*1354 net970
*1355 net971
*1356 net972
*1357 net973
*1358 net974
*1359 net975
*1360 net976
*1361 net977
*1362 net978
*1363 net979
*1364 net98
*1365 net980
*1366 net981
*1367 net982
*1368 net983
*1369 net984
*1370 net985
*1371 net986
*1372 net987
*1373 net988
*1374 net989
*1375 net99
*1376 net990
*1377 net991
*1378 net992
*1379 net993
*1380 net994
*1381 net995
*1382 net996
*1383 net997
*1384 net998
*1385 net999
*1386 ANTENNA_1
*1387 ANTENNA_2
*1388 ANTENNA_3
*1389 ANTENNA_4
*1390 ANTENNA_5
*1391 ANTENNA_6
*1392 ANTENNA_7
*1393 ANTENNA_8
*1394 ANTENNA_c100_A3
*1395 ANTENNA_c100_A3_1
*1396 ANTENNA_c100_B1
*1397 ANTENNA_c100_X
*1398 ANTENNA_c102_A1
*1399 ANTENNA_c102_A2
*1400 ANTENNA_c102_B1_N
*1401 ANTENNA_c102_B1_N_1
*1402 ANTENNA_c102_X
*1403 ANTENNA_c103_A
*1404 ANTENNA_c103_B
*1405 ANTENNA_c104_A1
*1406 ANTENNA_c104_A3
*1407 ANTENNA_c104_S0
*1408 ANTENNA_c104_S1
*1409 ANTENNA_c104_S1_1
*1410 ANTENNA_c105_A1
*1411 ANTENNA_c105_A2
*1412 ANTENNA_c105_B1_N
*1413 ANTENNA_c106_A
*1414 ANTENNA_c106_B
*1415 ANTENNA_c107_B
*1416 ANTENNA_c108_B
*1417 ANTENNA_c109_S0
*1418 ANTENNA_c109_S1
*1419 ANTENNA_c109_X
*1420 ANTENNA_c110_A
*1421 ANTENNA_c110_A_1
*1422 ANTENNA_c110_B
*1423 ANTENNA_c111_B
*1424 ANTENNA_c112_A
*1425 ANTENNA_c113_A
*1426 ANTENNA_c113_B
*1427 ANTENNA_c114_A
*1428 ANTENNA_c114_B
*1429 ANTENNA_c115_B
*1430 ANTENNA_c116_A
*1431 ANTENNA_c116_A_1
*1432 ANTENNA_c116_Y
*1433 ANTENNA_c119_B
*1434 ANTENNA_c122_A
*1435 ANTENNA_c125_B
*1436 ANTENNA_c127_B
*1437 ANTENNA_c127_Y
*1438 ANTENNA_c128_A2
*1439 ANTENNA_c129_A
*1440 ANTENNA_c131_A2
*1441 ANTENNA_c132_A
*1442 ANTENNA_c132_B
*1443 ANTENNA_c132_Y
*1444 ANTENNA_c133_A
*1445 ANTENNA_c133_B
*1446 ANTENNA_c133_B_1
*1447 ANTENNA_c134_A
*1448 ANTENNA_c134_B
*1449 ANTENNA_c135_A
*1450 ANTENNA_c135_A_1
*1451 ANTENNA_c135_B
*1452 ANTENNA_c135_Y
*1453 ANTENNA_c135_Y_1
*1454 ANTENNA_c137_B
*1455 ANTENNA_c137_Y
*1456 ANTENNA_c137_Y_1
*1457 ANTENNA_c138_A2
*1458 ANTENNA_c138_B1_N
*1459 ANTENNA_c138_X
*1460 ANTENNA_c139_A
*1461 ANTENNA_c139_B
*1462 ANTENNA_c139_Y
*1463 ANTENNA_c139_Y_1
*1464 ANTENNA_c140_B
*1465 ANTENNA_c141_A
*1466 ANTENNA_c141_B
*1467 ANTENNA_c141_Y
*1468 ANTENNA_c141_Y_1
*1469 ANTENNA_c142_A1
*1470 ANTENNA_c142_A1_1
*1471 ANTENNA_c142_A2
*1472 ANTENNA_c142_A3
*1473 ANTENNA_c142_X
*1474 ANTENNA_c143_A
*1475 ANTENNA_c143_B
*1476 ANTENNA_c144_A1
*1477 ANTENNA_c144_A2
*1478 ANTENNA_c144_X
*1479 ANTENNA_c145_B
*1480 ANTENNA_c146_A0
*1481 ANTENNA_c146_A1
*1482 ANTENNA_c146_A3
*1483 ANTENNA_c146_S0
*1484 ANTENNA_c146_X
*1485 ANTENNA_c147_A
*1486 ANTENNA_c147_A_1
*1487 ANTENNA_c149_A2
*1488 ANTENNA_c149_X
*1489 ANTENNA_c150_A1
*1490 ANTENNA_c150_A3
*1491 ANTENNA_c150_X
*1492 ANTENNA_c150_X_1
*1493 ANTENNA_c151_A1
*1494 ANTENNA_c151_A2
*1495 ANTENNA_c151_X
*1496 ANTENNA_c151_X_1
*1497 ANTENNA_c152_A2
*1498 ANTENNA_c152_X
*1499 ANTENNA_c152_X_1
*1500 ANTENNA_c153_A0
*1501 ANTENNA_c153_A1
*1502 ANTENNA_c153_A2
*1503 ANTENNA_c153_A3
*1504 ANTENNA_c153_S0
*1505 ANTENNA_c153_X
*1506 ANTENNA_c154_A
*1507 ANTENNA_c154_B
*1508 ANTENNA_c154_B_1
*1509 ANTENNA_c154_Y
*1510 ANTENNA_c154_Y_1
*1511 ANTENNA_c155_A
*1512 ANTENNA_c155_B
*1513 ANTENNA_c156_A
*1514 ANTENNA_c156_B
*1515 ANTENNA_c156_B_1
*1516 ANTENNA_c157_A1
*1517 ANTENNA_c157_A2
*1518 ANTENNA_c157_A3
*1519 ANTENNA_c157_B1
*1520 ANTENNA_c157_B1_1
*1521 ANTENNA_c157_X
*1522 ANTENNA_c158_B
*1523 ANTENNA_c158_Y
*1524 ANTENNA_c159_A
*1525 ANTENNA_c159_B
*1526 ANTENNA_c160_A
*1527 ANTENNA_c160_B
*1528 ANTENNA_c160_B_1
*1529 ANTENNA_c160_Y
*1530 ANTENNA_c160_Y_1
*1531 ANTENNA_c161_A
*1532 ANTENNA_c161_B
*1533 ANTENNA_c161_B_1
*1534 ANTENNA_c162_Y
*1535 ANTENNA_c162_Y_1
*1536 ANTENNA_c163_B
*1537 ANTENNA_c163_Y
*1538 ANTENNA_c164_A
*1539 ANTENNA_c164_B
*1540 ANTENNA_c165_A0
*1541 ANTENNA_c165_A1
*1542 ANTENNA_c165_S0
*1543 ANTENNA_c165_S1
*1544 ANTENNA_c166_A1
*1545 ANTENNA_c166_A2
*1546 ANTENNA_c166_B1_N
*1547 ANTENNA_c166_B1_N_1
*1548 ANTENNA_c166_X
*1549 ANTENNA_c166_X_1
*1550 ANTENNA_c167_A3
*1551 ANTENNA_c167_A3_1
*1552 ANTENNA_c167_B1
*1553 ANTENNA_c168_A
*1554 ANTENNA_c168_Y
*1555 ANTENNA_c168_Y_1
*1556 ANTENNA_c169_A1
*1557 ANTENNA_c169_A2
*1558 ANTENNA_c169_X
*1559 ANTENNA_c169_X_1
*1560 ANTENNA_c170_A1
*1561 ANTENNA_c170_A2
*1562 ANTENNA_c171_A1
*1563 ANTENNA_c171_B1_N
*1564 ANTENNA_c171_X
*1565 ANTENNA_c172_X
*1566 ANTENNA_c172_X_1
*1567 ANTENNA_c173_A1
*1568 ANTENNA_c173_A2
*1569 ANTENNA_c173_A3
*1570 ANTENNA_c173_B1
*1571 ANTENNA_c173_B1_1
*1572 ANTENNA_c173_X
*1573 ANTENNA_c174_A2
*1574 ANTENNA_c174_B1_N
*1575 ANTENNA_c175_A2
*1576 ANTENNA_c175_B1_N
*1577 ANTENNA_c176_A
*1578 ANTENNA_c176_B
*1579 ANTENNA_c177_B
*1580 ANTENNA_c178_A1
*1581 ANTENNA_c178_A2
*1582 ANTENNA_c178_B1_N
*1583 ANTENNA_c178_X
*1584 ANTENNA_c179_A
*1585 ANTENNA_c179_A_1
*1586 ANTENNA_c180_A2
*1587 ANTENNA_c180_X
*1588 ANTENNA_c181_Y
*1589 ANTENNA_c182_B
*1590 ANTENNA_c182_Y
*1591 ANTENNA_c183_A
*1592 ANTENNA_c184_B
*1593 ANTENNA_c185_A1
*1594 ANTENNA_c185_B1_N
*1595 ANTENNA_c185_X
*1596 ANTENNA_c185_X_1
*1597 ANTENNA_c186_B1_N
*1598 ANTENNA_c187_A2
*1599 ANTENNA_c187_B1_N
*1600 ANTENNA_c187_X
*1601 ANTENNA_c187_X_1
*1602 ANTENNA_c188_A
*1603 ANTENNA_c188_B
*1604 ANTENNA_c188_B_1
*1605 ANTENNA_c188_Y
*1606 ANTENNA_c189_A1
*1607 ANTENNA_c189_A3
*1608 ANTENNA_c189_B1
*1609 ANTENNA_c189_X
*1610 ANTENNA_c190_A2
*1611 ANTENNA_c190_B1_N
*1612 ANTENNA_c190_X
*1613 ANTENNA_c190_X_1
*1614 ANTENNA_c191_B
*1615 ANTENNA_c191_Y
*1616 ANTENNA_c191_Y_1
*1617 ANTENNA_c192_A1
*1618 ANTENNA_c192_A1_1
*1619 ANTENNA_c192_A2
*1620 ANTENNA_c192_B1_N
*1621 ANTENNA_c192_B1_N_1
*1622 ANTENNA_c192_X
*1623 ANTENNA_c193_A1
*1624 ANTENNA_c193_A3
*1625 ANTENNA_c193_A3_1
*1626 ANTENNA_c193_S0
*1627 ANTENNA_c193_S1
*1628 ANTENNA_c193_S1_1
*1629 ANTENNA_c194_A2
*1630 ANTENNA_c194_B1_N
*1631 ANTENNA_c194_X
*1632 ANTENNA_c195_A1
*1633 ANTENNA_c195_A2
*1634 ANTENNA_c196_A1
*1635 ANTENNA_c196_A2
*1636 ANTENNA_c196_B1
*1637 ANTENNA_c196_B1_1
*1638 ANTENNA_c197_A2
*1639 ANTENNA_c197_A3
*1640 ANTENNA_c197_B1
*1641 ANTENNA_c198_B
*1642 ANTENNA_c198_Y
*1643 ANTENNA_c199_A
*1644 ANTENNA_c199_B
*1645 ANTENNA_c200_B
*1646 ANTENNA_c201_A1
*1647 ANTENNA_c201_A2
*1648 ANTENNA_c201_B1_N
*1649 ANTENNA_c201_X
*1650 ANTENNA_c202_A
*1651 ANTENNA_c203_A
*1652 ANTENNA_c203_B
*1653 ANTENNA_c205_B
*1654 ANTENNA_c206_B
*1655 ANTENNA_c207_B
*1656 ANTENNA_c208_A2
*1657 ANTENNA_c208_B1_N
*1658 ANTENNA_c208_B1_N_1
*1659 ANTENNA_c209_B
*1660 ANTENNA_c211_Y
*1661 ANTENNA_c213_A3
*1662 ANTENNA_c213_A3_1
*1663 ANTENNA_c214_A2
*1664 ANTENNA_c214_S0
*1665 ANTENNA_c215_B
*1666 ANTENNA_c217_B
*1667 ANTENNA_c219_X
*1668 ANTENNA_c220_A3
*1669 ANTENNA_c220_X
*1670 ANTENNA_c221_A3
*1671 ANTENNA_c222_B
*1672 ANTENNA_c223_A2
*1673 ANTENNA_c223_B1_N
*1674 ANTENNA_c223_B1_N_1
*1675 ANTENNA_c224_B
*1676 ANTENNA_c225_A
*1677 ANTENNA_c225_B
*1678 ANTENNA_c226_Y
*1679 ANTENNA_c227_B
*1680 ANTENNA_c227_B_1
*1681 ANTENNA_c229_B1_N
*1682 ANTENNA_c229_X
*1683 ANTENNA_c232_B1_N
*1684 ANTENNA_c232_B1_N_1
*1685 ANTENNA_c232_X
*1686 ANTENNA_c233_A
*1687 ANTENNA_c233_B
*1688 ANTENNA_c234_Y
*1689 ANTENNA_c235_A
*1690 ANTENNA_c235_B
*1691 ANTENNA_c235_B_1
*1692 ANTENNA_c236_X
*1693 ANTENNA_c236_X_1
*1694 ANTENNA_c237_Y
*1695 ANTENNA_c239_A0
*1696 ANTENNA_c239_A0_1
*1697 ANTENNA_c239_S0
*1698 ANTENNA_c240_B1_N
*1699 ANTENNA_c240_B1_N_1
*1700 ANTENNA_c241_B1
*1701 ANTENNA_c264_A
*1702 ANTENNA_c264_B
*1703 ANTENNA_c265_A
*1704 ANTENNA_c265_Y
*1705 ANTENNA_c266_A
*1706 ANTENNA_c266_B
*1707 ANTENNA_c267_A1
*1708 ANTENNA_c267_A2
*1709 ANTENNA_c267_B1_N
*1710 ANTENNA_c267_X
*1711 ANTENNA_c267_X_1
*1712 ANTENNA_c268_A
*1713 ANTENNA_c268_B
*1714 ANTENNA_c268_Y
*1715 ANTENNA_c269_A
*1716 ANTENNA_c270_A
*1717 ANTENNA_c271_B
*1718 ANTENNA_c272_A
*1719 ANTENNA_c272_B
*1720 ANTENNA_c272_Y
*1721 ANTENNA_c272_Y_1
*1722 ANTENNA_c273_A
*1723 ANTENNA_c273_Y
*1724 ANTENNA_c274_Y
*1725 ANTENNA_c275_A
*1726 ANTENNA_c276_A
*1727 ANTENNA_c276_B
*1728 ANTENNA_c276_Y
*1729 ANTENNA_c276_Y_1
*1730 ANTENNA_c277_A
*1731 ANTENNA_c278_B
*1732 ANTENNA_c278_Y
*1733 ANTENNA_c280_A2
*1734 ANTENNA_c280_X
*1735 ANTENNA_c281_A
*1736 ANTENNA_c281_Y
*1737 ANTENNA_c281_Y_1
*1738 ANTENNA_c282_B
*1739 ANTENNA_c283_Y
*1740 ANTENNA_c284_B1_N
*1741 ANTENNA_c284_B1_N_1
*1742 ANTENNA_c284_X
*1743 ANTENNA_c284_X_1
*1744 ANTENNA_c285_A1
*1745 ANTENNA_c285_A2
*1746 ANTENNA_c285_A2_1
*1747 ANTENNA_c285_A3
*1748 ANTENNA_c285_A4
*1749 ANTENNA_c285_X
*1750 ANTENNA_c286_A
*1751 ANTENNA_c286_B
*1752 ANTENNA_c286_B_1
*1753 ANTENNA_c287_A
*1754 ANTENNA_c287_Y
*1755 ANTENNA_c288_A
*1756 ANTENNA_c290_A
*1757 ANTENNA_c290_Y
*1758 ANTENNA_c291_Y
*1759 ANTENNA_c292_B
*1760 ANTENNA_c293_A2
*1761 ANTENNA_c293_B1_N
*1762 ANTENNA_c293_B1_N_1
*1763 ANTENNA_c294_A
*1764 ANTENNA_c294_B
*1765 ANTENNA_c295_A
*1766 ANTENNA_c295_Y
*1767 ANTENNA_c295_Y_1
*1768 ANTENNA_c296_A1
*1769 ANTENNA_c296_A2
*1770 ANTENNA_c296_B1_N
*1771 ANTENNA_c297_A1
*1772 ANTENNA_c298_B
*1773 ANTENNA_c298_Y
*1774 ANTENNA_c298_Y_1
*1775 ANTENNA_c299_A2
*1776 ANTENNA_c299_X
*1777 ANTENNA_c300_A2
*1778 ANTENNA_c300_A3
*1779 ANTENNA_c300_A3_1
*1780 ANTENNA_c300_B1
*1781 ANTENNA_c301_A
*1782 ANTENNA_c301_B
*1783 ANTENNA_c302_A1
*1784 ANTENNA_c302_A2
*1785 ANTENNA_c302_B1_N
*1786 ANTENNA_c303_Y
*1787 ANTENNA_c304_A2
*1788 ANTENNA_c304_B1_N
*1789 ANTENNA_c305_Y
*1790 ANTENNA_c306_A0
*1791 ANTENNA_c306_A1
*1792 ANTENNA_c306_A2
*1793 ANTENNA_c306_S0
*1794 ANTENNA_c306_S1
*1795 ANTENNA_c307_A0
*1796 ANTENNA_c307_A2
*1797 ANTENNA_c307_A3
*1798 ANTENNA_c307_S0
*1799 ANTENNA_c307_S1
*1800 ANTENNA_c307_S1_1
*1801 ANTENNA_c308_B
*1802 ANTENNA_c308_Y
*1803 ANTENNA_c309_A1
*1804 ANTENNA_c309_A2
*1805 ANTENNA_c309_B1_N
*1806 ANTENNA_c310_B
*1807 ANTENNA_c312_A
*1808 ANTENNA_c312_B
*1809 ANTENNA_c313_B
*1810 ANTENNA_c314_A
*1811 ANTENNA_c315_A2
*1812 ANTENNA_c315_B1_N
*1813 ANTENNA_c315_B1_N_1
*1814 ANTENNA_c316_Y
*1815 ANTENNA_c318_B
*1816 ANTENNA_c319_A1
*1817 ANTENNA_c319_B1_N
*1818 ANTENNA_c320_A1
*1819 ANTENNA_c320_A2
*1820 ANTENNA_c320_B1_N
*1821 ANTENNA_c320_X
*1822 ANTENNA_c321_A2
*1823 ANTENNA_c321_B1_N
*1824 ANTENNA_c322_A
*1825 ANTENNA_c322_B
*1826 ANTENNA_c324_A1
*1827 ANTENNA_c324_A2
*1828 ANTENNA_c324_B1_N
*1829 ANTENNA_c325_A
*1830 ANTENNA_c325_B
*1831 ANTENNA_c327_A1
*1832 ANTENNA_c327_A2
*1833 ANTENNA_c327_A2_1
*1834 ANTENNA_c328_A2
*1835 ANTENNA_c328_A2_1
*1836 ANTENNA_c328_A3
*1837 ANTENNA_c328_S0
*1838 ANTENNA_c328_S0_1
*1839 ANTENNA_c328_S1
*1840 ANTENNA_c329_B1_N
*1841 ANTENNA_c332_A2
*1842 ANTENNA_c332_A3
*1843 ANTENNA_c332_B1
*1844 ANTENNA_c332_B1_1
*1845 ANTENNA_c332_X
*1846 ANTENNA_c333_A1
*1847 ANTENNA_c333_A2
*1848 ANTENNA_c333_B1_N
*1849 ANTENNA_c333_X
*1850 ANTENNA_c334_A1
*1851 ANTENNA_c334_A3
*1852 ANTENNA_c334_A4
*1853 ANTENNA_c334_A4_1
*1854 ANTENNA_c334_B1
*1855 ANTENNA_c334_B1_1
*1856 ANTENNA_c334_X
*1857 ANTENNA_c335_A2
*1858 ANTENNA_c335_A2_1
*1859 ANTENNA_c335_X
*1860 ANTENNA_c338_A2
*1861 ANTENNA_c338_A3
*1862 ANTENNA_c338_A4
*1863 ANTENNA_c338_B1
*1864 ANTENNA_c339_A2
*1865 ANTENNA_c339_B1_N
*1866 ANTENNA_c340_A2
*1867 ANTENNA_c340_B1_N
*1868 ANTENNA_c340_B1_N_1
*1869 ANTENNA_c341_A
*1870 ANTENNA_c341_B
*1871 ANTENNA_c342_B1_N
*1872 ANTENNA_c342_X
*1873 ANTENNA_c343_A1
*1874 ANTENNA_c343_B1_N
*1875 ANTENNA_c344_B1_N
*1876 ANTENNA_c345_A3
*1877 ANTENNA_c345_A4
*1878 ANTENNA_c345_B1
*1879 ANTENNA_c345_X
*1880 ANTENNA_c347_B1_N
*1881 ANTENNA_c348_B1_N
*1882 ANTENNA_c348_X
*1883 ANTENNA_c349_A
*1884 ANTENNA_c350_A
*1885 ANTENNA_c351_A1
*1886 ANTENNA_c351_A1_1
*1887 ANTENNA_c351_A3
*1888 ANTENNA_c351_S1
*1889 ANTENNA_c352_A3
*1890 ANTENNA_c352_B1
*1891 ANTENNA_c353_A1
*1892 ANTENNA_c353_A2
*1893 ANTENNA_c353_B1_N
*1894 ANTENNA_c354_A2
*1895 ANTENNA_c355_A2
*1896 ANTENNA_c355_B1_N
*1897 ANTENNA_c356_A
*1898 ANTENNA_c356_B
*1899 ANTENNA_c357_A2
*1900 ANTENNA_c357_B1_N
*1901 ANTENNA_c357_X
*1902 ANTENNA_c358_A1
*1903 ANTENNA_c358_A1_1
*1904 ANTENNA_c358_A2
*1905 ANTENNA_c358_A3
*1906 ANTENNA_c358_A3_1
*1907 ANTENNA_c358_S0
*1908 ANTENNA_c358_S0_1
*1909 ANTENNA_c358_S1
*1910 ANTENNA_c358_S1_1
*1911 ANTENNA_c359_A1
*1912 ANTENNA_c360_A1
*1913 ANTENNA_c360_A2
*1914 ANTENNA_c361_A1
*1915 ANTENNA_c361_A2
*1916 ANTENNA_c362_A1
*1917 ANTENNA_c362_S0
*1918 ANTENNA_c362_S1
*1919 ANTENNA_c362_X
*1920 ANTENNA_c363_A1
*1921 ANTENNA_c363_A2
*1922 ANTENNA_c363_A3
*1923 ANTENNA_c363_S0
*1924 ANTENNA_c363_X
*1925 ANTENNA_c364_A3
*1926 ANTENNA_c364_A4
*1927 ANTENNA_c364_B1
*1928 ANTENNA_c365_B1_N
*1929 ANTENNA_c366_A
*1930 ANTENNA_c367_A2
*1931 ANTENNA_c367_A2_1
*1932 ANTENNA_c367_B1_N
*1933 ANTENNA_c368_B1_N
*1934 ANTENNA_c369_X
*1935 ANTENNA_c371_A
*1936 ANTENNA_c373_A1
*1937 ANTENNA_c373_A1_1
*1938 ANTENNA_c373_A3
*1939 ANTENNA_c373_A3_1
*1940 ANTENNA_c396_B
*1941 ANTENNA_c396_B_1
*1942 ANTENNA_c397_A
*1943 ANTENNA_c397_B
*1944 ANTENNA_c398_A2
*1945 ANTENNA_c398_B1_N
*1946 ANTENNA_c398_B1_N_1
*1947 ANTENNA_c398_X
*1948 ANTENNA_c399_A
*1949 ANTENNA_c399_B
*1950 ANTENNA_c400_B
*1951 ANTENNA_c401_A
*1952 ANTENNA_c401_B
*1953 ANTENNA_c401_Y
*1954 ANTENNA_c403_Y
*1955 ANTENNA_c404_B
*1956 ANTENNA_c404_Y
*1957 ANTENNA_c405_A
*1958 ANTENNA_c405_B
*1959 ANTENNA_c405_Y
*1960 ANTENNA_c406_A1
*1961 ANTENNA_c406_X
*1962 ANTENNA_c407_Y
*1963 ANTENNA_c408_A
*1964 ANTENNA_c409_A
*1965 ANTENNA_c409_Y
*1966 ANTENNA_c410_A
*1967 ANTENNA_c410_Y
*1968 ANTENNA_c411_B
*1969 ANTENNA_c412_B
*1970 ANTENNA_c412_Y