*SPEF "ieee 1481-1999"
*DESIGN "netlist_0"
*DATE "23:48:25 Saturday August 17, 2024"
*VENDOR "The OpenROAD Project"
*PROGRAM "OpenROAD"
*VERSION "d423155d69de7f683a23f6916ead418a615ad4ad"
*DESIGN_FLOW "NAME_SCOPE LOCAL" "PIN_CAP NONE"
*DIVIDER /
*DELIMITER :
*BUS_DELIMITER []
*T_UNIT 1 NS
*C_UNIT 1 PF
*R_UNIT 1 OHM
*L_UNIT 1 HENRY

*NAME_MAP
*3 clk
*4 in0
*5 in1
*6 in10
*7 in11
*8 in12
*9 in13
*10 in14
*11 in15
*12 in16
*13 in17
*14 in18
*15 in19
*16 in2
*17 in20
*18 in21
*19 in22
*20 in23
*21 in24
*22 in25
*23 in26
*24 in27
*25 in28
*26 in29
*27 in3
*28 in30
*29 in31
*30 in32
*31 in33
*32 in34
*33 in35
*34 in36
*35 in37
*36 in38
*37 in39
*38 in4
*39 in40
*40 in41
*41 in42
*42 in43
*43 in44
*44 in45
*45 in46
*46 in47
*47 in48
*48 in49
*49 in5
*50 in50
*51 in51
*52 in52
*53 in53
*54 in54
*55 in55
*56 in56
*57 in57
*58 in58
*59 in59
*60 in6
*61 in60
*62 in61
*63 in7
*64 in8
*65 in9
*66 out0
*67 out1
*68 out10
*69 out11
*70 out12
*71 out13
*72 out14
*73 out15
*74 out16
*75 out17
*76 out18
*77 out19
*78 out2
*79 out20
*80 out21
*81 out22
*82 out23
*83 out24
*84 out25
*85 out26
*86 out27
*87 out28
*88 out29
*89 out3
*90 out30
*91 out31
*92 out32
*93 out33
*94 out34
*95 out35
*96 out36
*97 out37
*98 out38
*99 out39
*100 out4
*101 out40
*102 out41
*103 out42
*104 out43
*105 out44
*106 out45
*107 out46
*108 out47
*109 out48
*110 out49
*111 out5
*112 out50
*113 out51
*114 out52
*115 out53
*116 out54
*117 out55
*118 out56
*119 out57
*120 out58
*121 out59
*122 out6
*123 out60
*124 out61
*125 out7
*126 out8
*127 out9
*128 rst
*129 clknet_0_clk
*130 clknet_0_net196
*131 clknet_0_net198
*132 clknet_0_net199
*133 clknet_0_net200
*134 clknet_0_net292
*135 clknet_0_net293
*136 clknet_0_net294
*137 clknet_0_net298
*138 clknet_0_net301
*139 clknet_0_net306
*140 clknet_0_net307
*141 clknet_0_net316
*142 clknet_0_net422
*143 clknet_0_net424
*144 clknet_0_net426
*145 clknet_0_net493
*146 clknet_0_net494
*147 clknet_0_net495
*148 clknet_0_net539
*149 clknet_0_net540
*150 clknet_0_net553
*151 clknet_0_net652
*152 clknet_0_net653
*153 clknet_0_net654
*154 clknet_0_net655
*155 clknet_0_net656
*156 clknet_0_net657
*157 clknet_0_net658
*158 clknet_0_net659
*159 clknet_0_net660
*160 clknet_0_net661
*161 clknet_0_net669
*162 clknet_0_net707
*163 clknet_0_net708
*164 clknet_0_net725
*165 clknet_0_net726
*166 clknet_0_net803
*167 clknet_0_net805
*168 clknet_0_net808
*169 clknet_0_net813
*170 clknet_0_net819
*171 clknet_1_0__leaf_net196
*172 clknet_1_0__leaf_net198
*173 clknet_1_0__leaf_net199
*174 clknet_1_0__leaf_net200
*175 clknet_1_0__leaf_net292
*176 clknet_1_0__leaf_net293
*177 clknet_1_0__leaf_net294
*178 clknet_1_0__leaf_net298
*179 clknet_1_0__leaf_net301
*180 clknet_1_0__leaf_net306
*181 clknet_1_0__leaf_net307
*182 clknet_1_0__leaf_net316
*183 clknet_1_0__leaf_net422
*184 clknet_1_0__leaf_net424
*185 clknet_1_0__leaf_net426
*186 clknet_1_0__leaf_net493
*187 clknet_1_0__leaf_net494
*188 clknet_1_0__leaf_net495
*189 clknet_1_0__leaf_net539
*190 clknet_1_0__leaf_net540
*191 clknet_1_0__leaf_net553
*192 clknet_1_0__leaf_net652
*193 clknet_1_0__leaf_net653
*194 clknet_1_0__leaf_net654
*195 clknet_1_0__leaf_net655
*196 clknet_1_0__leaf_net656
*197 clknet_1_0__leaf_net657
*198 clknet_1_0__leaf_net658
*199 clknet_1_0__leaf_net659
*200 clknet_1_0__leaf_net660
*201 clknet_1_0__leaf_net661
*202 clknet_1_0__leaf_net669
*203 clknet_1_0__leaf_net707
*204 clknet_1_0__leaf_net708
*205 clknet_1_0__leaf_net725
*206 clknet_1_0__leaf_net726
*207 clknet_1_0__leaf_net803
*208 clknet_1_0__leaf_net805
*209 clknet_1_0__leaf_net808
*210 clknet_1_0__leaf_net813
*211 clknet_1_0__leaf_net819
*212 clknet_1_1__leaf_net196
*213 clknet_1_1__leaf_net198
*214 clknet_1_1__leaf_net199
*215 clknet_1_1__leaf_net200
*216 clknet_1_1__leaf_net292
*217 clknet_1_1__leaf_net293
*218 clknet_1_1__leaf_net294
*219 clknet_1_1__leaf_net298
*220 clknet_1_1__leaf_net301
*221 clknet_1_1__leaf_net306
*222 clknet_1_1__leaf_net307
*223 clknet_1_1__leaf_net316
*224 clknet_1_1__leaf_net422
*225 clknet_1_1__leaf_net424
*226 clknet_1_1__leaf_net426
*227 clknet_1_1__leaf_net493
*228 clknet_1_1__leaf_net494
*229 clknet_1_1__leaf_net495
*230 clknet_1_1__leaf_net539
*231 clknet_1_1__leaf_net540
*232 clknet_1_1__leaf_net553
*233 clknet_1_1__leaf_net652
*234 clknet_1_1__leaf_net653
*235 clknet_1_1__leaf_net654
*236 clknet_1_1__leaf_net655
*237 clknet_1_1__leaf_net656
*238 clknet_1_1__leaf_net657
*239 clknet_1_1__leaf_net658
*240 clknet_1_1__leaf_net659
*241 clknet_1_1__leaf_net660
*242 clknet_1_1__leaf_net661
*243 clknet_1_1__leaf_net669
*244 clknet_1_1__leaf_net707
*245 clknet_1_1__leaf_net708
*246 clknet_1_1__leaf_net725
*247 clknet_1_1__leaf_net726
*248 clknet_1_1__leaf_net803
*249 clknet_1_1__leaf_net805
*250 clknet_1_1__leaf_net808
*251 clknet_1_1__leaf_net813
*252 clknet_1_1__leaf_net819
*253 clknet_2_0__leaf_clk
*254 clknet_2_1__leaf_clk
*255 clknet_2_2__leaf_clk
*256 clknet_2_3__leaf_clk
*257 clknet_leaf_0_clk
*258 clknet_leaf_10_clk
*259 clknet_leaf_11_clk
*260 clknet_leaf_12_clk
*261 clknet_leaf_13_clk
*262 clknet_leaf_14_clk
*263 clknet_leaf_15_clk
*264 clknet_leaf_16_clk
*265 clknet_leaf_17_clk
*266 clknet_leaf_18_clk
*267 clknet_leaf_19_clk
*268 clknet_leaf_1_clk
*269 clknet_leaf_20_clk
*270 clknet_leaf_21_clk
*271 clknet_leaf_22_clk
*272 clknet_leaf_23_clk
*273 clknet_leaf_24_clk
*274 clknet_leaf_25_clk
*275 clknet_leaf_26_clk
*276 clknet_leaf_27_clk
*277 clknet_leaf_28_clk
*278 clknet_leaf_29_clk
*279 clknet_leaf_2_clk
*280 clknet_leaf_30_clk
*281 clknet_leaf_31_clk
*282 clknet_leaf_32_clk
*283 clknet_leaf_33_clk
*284 clknet_leaf_34_clk
*285 clknet_leaf_35_clk
*286 clknet_leaf_3_clk
*287 clknet_leaf_4_clk
*288 clknet_leaf_5_clk
*289 clknet_leaf_6_clk
*290 clknet_leaf_7_clk
*291 clknet_leaf_8_clk
*292 clknet_leaf_9_clk
*293 net0
*294 net1
*295 net10
*296 net100
*297 net101
*298 net102
*299 net103
*300 net104
*301 net105
*302 net106
*303 net107
*304 net108
*305 net109
*306 net11
*307 net110
*308 net111
*309 net112
*310 net113
*311 net114
*312 net115
*313 net116
*314 net117
*315 net118
*316 net119
*317 net12
*318 net120
*319 net121
*320 net122
*321 net123
*322 net124
*323 net125
*324 net126
*325 net127
*326 net128
*327 net129
*328 net13
*329 net130
*330 net131
*331 net132
*332 net133
*333 net134
*334 net135
*335 net136
*336 net137
*337 net138
*338 net139
*339 net14
*340 net140
*341 net141
*342 net142
*343 net143
*344 net144
*345 net145
*346 net146
*347 net147
*348 net148
*349 net149
*350 net15
*351 net150
*352 net151
*353 net152
*354 net153
*355 net154
*356 net155
*357 net156
*358 net157
*359 net158
*360 net159
*361 net16
*362 net160
*363 net161
*364 net162
*365 net163
*366 net164
*367 net165
*368 net166
*369 net167
*370 net168
*371 net169
*372 net17
*373 net170
*374 net171
*375 net172
*376 net173
*377 net174
*378 net175
*379 net176
*380 net177
*381 net178
*382 net179
*383 net18
*384 net180
*385 net181
*386 net182
*387 net183
*388 net184
*389 net185
*390 net186
*391 net187
*392 net188
*393 net189
*394 net19
*395 net190
*396 net191
*397 net192
*398 net193
*399 net194
*400 net195
*401 net196
*402 net197
*403 net198
*404 net199
*405 net2
*406 net20
*407 net200
*408 net201
*409 net202
*410 net203
*411 net204
*412 net205
*413 net206
*414 net207
*415 net208
*416 net209
*417 net21
*418 net210
*419 net211
*420 net212
*421 net213
*422 net214
*423 net215
*424 net216
*425 net217
*426 net218
*427 net219
*428 net22
*429 net220
*430 net221
*431 net222
*432 net223
*433 net224
*434 net225
*435 net226
*436 net227
*437 net228
*438 net229
*439 net23
*440 net230
*441 net231
*442 net232
*443 net233
*444 net234
*445 net235
*446 net236
*447 net237
*448 net238
*449 net239
*450 net24
*451 net240
*452 net241
*453 net242
*454 net243
*455 net244
*456 net245
*457 net246
*458 net247
*459 net248
*460 net249
*461 net25
*462 net250
*463 net251
*464 net252
*465 net253
*466 net254
*467 net255
*468 net256
*469 net257
*470 net258
*471 net259
*472 net26
*473 net260
*474 net261
*475 net262
*476 net263
*477 net264
*478 net265
*479 net266
*480 net267
*481 net268
*482 net269
*483 net27
*484 net270
*485 net271
*486 net272
*487 net273
*488 net274
*489 net275
*490 net276
*491 net277
*492 net278
*493 net279
*494 net28
*495 net280
*496 net281
*497 net282
*498 net283
*499 net284
*500 net285
*501 net286
*502 net287
*503 net288
*504 net289
*505 net29
*506 net290
*507 net291
*508 net292
*509 net293
*510 net294
*511 net295
*512 net296
*513 net297
*514 net298
*515 net299
*516 net3
*517 net30
*518 net300
*519 net301
*520 net302
*521 net303
*522 net304
*523 net305
*524 net306
*525 net307
*526 net308
*527 net309
*528 net31
*529 net310
*530 net311
*531 net312
*532 net313
*533 net314
*534 net315
*535 net316
*536 net317
*537 net318
*538 net319
*539 net32
*540 net320
*541 net321
*542 net322
*543 net323
*544 net324
*545 net325
*546 net326
*547 net327
*548 net328
*549 net329
*550 net33
*551 net330
*552 net331
*553 net332
*554 net333
*555 net334
*556 net335
*557 net336
*558 net337
*559 net338
*560 net339
*561 net34
*562 net340
*563 net341
*564 net342
*565 net343
*566 net344
*567 net345
*568 net346
*569 net347
*570 net348
*571 net349
*572 net35
*573 net350
*574 net351
*575 net352
*576 net353
*577 net354
*578 net355
*579 net356
*580 net357
*581 net358
*582 net359
*583 net36
*584 net360
*585 net361
*586 net362
*587 net363
*588 net364
*589 net365
*590 net366
*591 net367
*592 net368
*593 net369
*594 net37
*595 net370
*596 net371
*597 net372
*598 net373
*599 net374
*600 net375
*601 net376
*602 net377
*603 net378
*604 net379
*605 net38
*606 net380
*607 net381
*608 net382
*609 net383
*610 net384
*611 net385
*612 net386
*613 net387
*614 net388
*615 net389
*616 net39
*617 net390
*618 net391
*619 net392
*620 net393
*621 net394
*622 net395
*623 net396
*624 net397
*625 net398
*626 net399
*627 net4
*628 net40
*629 net400
*630 net401
*631 net402
*632 net403
*633 net404
*634 net405
*635 net406
*636 net407
*637 net408
*638 net409
*639 net41
*640 net410
*641 net411
*642 net412
*643 net413
*644 net414
*645 net415
*646 net416
*647 net417
*648 net418
*649 net419
*650 net42
*651 net420
*652 net421
*653 net422
*654 net423
*655 net424
*656 net425
*657 net426
*658 net427
*659 net428
*660 net429
*661 net43
*662 net430
*663 net431
*664 net432
*665 net433
*666 net434
*667 net435
*668 net436
*669 net437
*670 net438
*671 net439
*672 net44
*673 net440
*674 net441
*675 net442
*676 net443
*677 net444
*678 net445
*679 net446
*680 net447
*681 net448
*682 net449
*683 net45
*684 net450
*685 net451
*686 net452
*687 net453
*688 net454
*689 net455
*690 net456
*691 net457
*692 net458
*693 net459
*694 net46
*695 net460
*696 net461
*697 net462
*698 net463
*699 net464
*700 net465
*701 net466
*702 net467
*703 net468
*704 net469
*705 net47
*706 net470
*707 net471
*708 net472
*709 net473
*710 net474
*711 net475
*712 net476
*713 net477
*714 net478
*715 net479
*716 net48
*717 net480
*718 net481
*719 net482
*720 net483
*721 net484
*722 net485
*723 net486
*724 net487
*725 net488
*726 net489
*727 net49
*728 net490
*729 net491
*730 net492
*731 net493
*732 net494
*733 net495
*734 net496
*735 net497
*736 net498
*737 net499
*738 net5
*739 net50
*740 net500
*741 net501
*742 net502
*743 net503
*744 net504
*745 net505
*746 net506
*747 net507
*748 net508
*749 net509
*750 net51
*751 net510
*752 net511
*753 net512
*754 net513
*755 net514
*756 net515
*757 net516
*758 net517
*759 net518
*760 net519
*761 net52
*762 net520
*763 net521
*764 net522
*765 net523
*766 net524
*767 net525
*768 net526
*769 net527
*770 net528
*771 net529
*772 net53
*773 net530
*774 net531
*775 net532
*776 net533
*777 net534
*778 net535
*779 net536
*780 net537
*781 net538
*782 net539
*783 net54
*784 net540
*785 net541
*786 net542
*787 net543
*788 net544
*789 net545
*790 net546
*791 net547
*792 net548
*793 net549
*794 net55
*795 net550
*796 net551
*797 net552
*798 net553
*799 net554
*800 net555
*801 net556
*802 net557
*803 net558
*804 net559
*805 net56
*806 net560
*807 net561
*808 net562
*809 net563
*810 net564
*811 net565
*812 net566
*813 net567
*814 net568
*815 net569
*816 net57
*817 net570
*818 net571
*819 net572
*820 net573
*821 net574
*822 net575
*823 net576
*824 net577
*825 net578
*826 net579
*827 net58
*828 net580
*829 net581
*830 net582
*831 net583
*832 net584
*833 net585
*834 net586
*835 net587
*836 net588
*837 net589
*838 net59
*839 net590
*840 net591
*841 net592
*842 net593
*843 net594
*844 net595
*845 net596
*846 net597
*847 net598
*848 net599
*849 net6
*850 net60
*851 net600
*852 net601
*853 net602
*854 net603
*855 net604
*856 net605
*857 net606
*858 net607
*859 net608
*860 net609
*861 net61
*862 net610
*863 net611
*864 net612
*865 net613
*866 net614
*867 net615
*868 net616
*869 net617
*870 net618
*871 net619
*872 net62
*873 net620
*874 net621
*875 net622
*876 net623
*877 net624
*878 net625
*879 net626
*880 net627
*881 net628
*882 net629
*883 net63
*884 net630
*885 net631
*886 net632
*887 net633
*888 net634
*889 net635
*890 net636
*891 net637
*892 net638
*893 net639
*894 net64
*895 net640
*896 net641
*897 net642
*898 net643
*899 net644
*900 net645
*901 net646
*902 net647
*903 net648
*904 net649
*905 net65
*906 net650
*907 net651
*908 net652
*909 net653
*910 net654
*911 net655
*912 net656
*913 net657
*914 net658
*915 net659
*916 net66
*917 net660
*918 net661
*919 net662
*920 net663
*921 net664
*922 net665
*923 net666
*924 net667
*925 net668
*926 net669
*927 net67
*928 net670
*929 net671
*930 net672
*931 net673
*932 net674
*933 net675
*934 net676
*935 net677
*936 net678
*937 net679
*938 net68
*939 net680
*940 net681
*941 net682
*942 net683
*943 net684
*944 net685
*945 net686
*946 net687
*947 net688
*948 net689
*949 net69
*950 net690
*951 net691
*952 net692
*953 net693
*954 net694
*955 net695
*956 net696
*957 net697
*958 net698
*959 net699
*960 net7
*961 net70
*962 net700
*963 net701
*964 net702
*965 net703
*966 net704
*967 net705
*968 net706
*969 net707
*970 net708
*971 net709
*972 net71
*973 net710
*974 net711
*975 net712
*976 net713
*977 net714
*978 net715
*979 net716
*980 net717
*981 net718
*982 net719
*983 net72
*984 net720
*985 net721
*986 net722
*987 net723
*988 net724
*989 net725
*990 net726
*991 net727
*992 net728
*993 net729
*994 net73
*995 net730
*996 net731
*997 net732
*998 net733
*999 net734
*1000 net735
*1001 net736
*1002 net737
*1003 net738
*1004 net739
*1005 net74
*1006 net740
*1007 net741
*1008 net742
*1009 net743
*1010 net744
*1011 net745
*1012 net746
*1013 net747
*1014 net748
*1015 net749
*1016 net75
*1017 net750
*1018 net751
*1019 net752
*1020 net753
*1021 net754
*1022 net755
*1023 net756
*1024 net757
*1025 net758
*1026 net759
*1027 net76
*1028 net760
*1029 net761
*1030 net762
*1031 net763
*1032 net764
*1033 net765
*1034 net766
*1035 net767
*1036 net768
*1037 net769
*1038 net77
*1039 net770
*1040 net771
*1041 net772
*1042 net773
*1043 net774
*1044 net775
*1045 net776
*1046 net777
*1047 net778
*1048 net779
*1049 net78
*1050 net780
*1051 net781
*1052 net782
*1053 net783
*1054 net784
*1055 net785
*1056 net786
*1057 net787
*1058 net788
*1059 net789
*1060 net79
*1061 net790
*1062 net791
*1063 net792
*1064 net793
*1065 net794
*1066 net795
*1067 net796
*1068 net797
*1069 net798
*1070 net799
*1071 net8
*1072 net80
*1073 net800
*1074 net801
*1075 net802
*1076 net803
*1077 net804
*1078 net805
*1079 net806
*1080 net807
*1081 net808
*1082 net809
*1083 net81
*1084 net810
*1085 net811
*1086 net812
*1087 net813
*1088 net814
*1089 net815
*1090 net816
*1091 net817
*1092 net818
*1093 net819
*1094 net82
*1095 net820
*1096 net821
*1097 net822
*1098 net823
*1099 net824
*1100 net825
*1101 net826
*1102 net827
*1103 net828
*1104 net829
*1105 net83
*1106 net830
*1107 net831
*1108 net832
*1109 net833
*1110 net834
*1111 net835
*1112 net836
*1113 net837
*1114 net838
*1115 net839
*1116 net84
*1117 net840
*1118 net841
*1119 net842
*1120 net843
*1121 net844
*1122 net845
*1123 net846
*1124 net847
*1125 net848
*1126 net849
*1127 net85
*1128 net850
*1129 net851
*1130 net852
*1131 net853
*1132 net854
*1133 net855
*1134 net856
*1135 net857
*1136 net858
*1137 net859
*1138 net86
*1139 net860
*1140 net861
*1141 net862
*1142 net863
*1143 net864
*1144 net865
*1145 net866
*1146 net867
*1147 net868
*1148 net869
*1149 net87
*1150 net870
*1151 net871
*1152 net872
*1153 net873
*1154 net874
*1155 net875
*1156 net876
*1157 net877
*1158 net878
*1159 net879
*1160 net88
*1161 net880
*1162 net881
*1163 net882
*1164 net883
*1165 net884
*1166 net885
*1167 net886
*1168 net887
*1169 net888
*1170 net889
*1171 net89
*1172 net890
*1173 net891
*1174 net892
*1175 net893
*1176 net894
*1177 net895
*1178 net896
*1179 net897
*1180 net898
*1181 net899
*1182 net9
*1183 net90
*1184 net900
*1185 net901
*1186 net902
*1187 net903
*1188 net904
*1189 net905
*1190 net906
*1191 net907
*1192 net908
*1193 net909
*1194 net91
*1195 net910
*1196 net911
*1197 net912
*1198 net913
*1199 net914
*1200 net915
*1201 net916
*1202 net917
*1203 net918
*1204 net919
*1205 net92
*1206 net920
*1207 net921
*1208 net922
*1209 net923
*1210 net924
*1211 net925
*1212 net926
*1213 net927
*1214 net928
*1215 net929
*1216 net93
*1217 net930
*1218 net931
*1219 net932
*1220 net933
*1221 net934
*1222 net935
*1223 net936
*1224 net937
*1225 net938
*1226 net939
*1227 net94
*1228 net940
*1229 net941
*1230 net942
*1231 net943
*1232 net944
*1233 net945
*1234 net946
*1235 net947
*1236 net948
*1237 net949
*1238 net95
*1239 net950
*1240 net951
*1241 net952
*1242 net953
*1243 net954
*1244 net955
*1245 net956
*1246 net957
*1247 net958
*1248 net959
*1249 net96
*1250 net960
*1251 net961
*1252 net97
*1253 net98
*1254 net99
*1255 ANTENNA_c153_A2
*1256 ANTENNA_c155_A2
*1257 ANTENNA_c273_A
*1258 ANTENNA_c294_B
*1259 ANTENNA_c297_X
*1260 ANTENNA_c299_A
*1261 ANTENNA_c356_X
*1262 ANTENNA_c387_Q
*1263 ANTENNA_c388_RESET_B
*1264 ANTENNA_c390_Q_N
*1265 ANTENNA_c390_SCE
*1266 ANTENNA_c391_B
*1267 ANTENNA_c392_A3
*1268 ANTENNA_c393_SCD
*1269 ANTENNA_c394_B1
*1270 ANTENNA_c395_SCE
*1271 ANTENNA_c398_S0
*1272 ANTENNA_c398_S1
*1273 ANTENNA_c414_B1
*1274 ANTENNA_c425_Y
*1275 ANTENNA_c429_SET_B
*1276 ANTENNA_c430_RESET_B
*1277 ANTENNA_c436_SET_B
*1278 ANTENNA_c460_X
*1279 ANTENNA_c461_A2
*1280 ANTENNA_c510_Y
*1281 ANTENNA_c511_SET_B
*1282 ANTENNA_c512_SET_B
*1283 ANTENNA_c514_SET_B
*1284 ANTENNA_c515_SCD
*1285 ANTENNA_c518_SET_B
*1286 ANTENNA_c519_A3
*1287 ANTENNA_c523_RESET_B
*1288 ANTENNA_c529_DE
*1289 ANTENNA_c545_S1
*1290 ANTENNA_c567_D
*1291 ANTENNA_c568_D
*1292 ANTENNA_c568_SET_B
*1293 ANTENNA_c573_Y
*1294 ANTENNA_c574_D
*1295 ANTENNA_c580_S1
*1296 ANTENNA_c585_SET_B
*1297 ANTENNA_c586_SET_B
*1298 ANTENNA_c587_X
*1299 ANTENNA_c595_D
*1300 ANTENNA_c639_A
*1301 ANTENNA_c654_B
*1302 ANTENNA_c663_D
*1303 ANTENNA_clkbuf_0_clk_A
*1304 ANTENNA_clkbuf_0_clk_X
*1305 ANTENNA_clkbuf_2_0__f_clk_A
*1306 ANTENNA_clkbuf_2_0__f_clk_X
*1307 ANTENNA_clkbuf_2_1__f_clk_A
*1308 ANTENNA_clkbuf_2_1__f_clk_X
*1309 ANTENNA_clkbuf_2_2__f_clk_A
*1310 ANTENNA_clkbuf_2_2__f_clk_X
*1311 ANTENNA_clkbuf_2_3__f_clk_A
*1312 ANTENNA_clkbuf_2_3__f_clk_X
*1313 ANTENNA_clkbuf_leaf_0_clk_A
*1314 ANTENNA_clkbuf_leaf_10_clk_A
*1315 ANTENNA_clkbuf_leaf_11_clk_A
*1316 ANTENNA_clkbuf_leaf_12_clk_A
*1317 ANTENNA_clkbuf_leaf_13_clk_A
*1318 ANTENNA_clkbuf_leaf_14_clk_A
*1319 ANTENNA_clkbuf_leaf_15_clk_A
*1320 ANTENNA_clkbuf_leaf_16_clk_A
*1321 ANTENNA_clkbuf_leaf_17_clk_A
*1322 ANTENNA_clkbuf_leaf_18_clk_A
*1323 ANTENNA_clkbuf_leaf_19_clk_A
*1324 ANTENNA_clkbuf_leaf_1_clk_A
*1325 ANTENNA_clkbuf_leaf_20_clk_A
*1326 ANTENNA_clkbuf_leaf_21_clk_A
*1327 ANTENNA_clkbuf_leaf_22_clk_A
*1328 ANTENNA_clkbuf_leaf_23_clk_A
*1329 ANTENNA_clkbuf_leaf_24_clk_A
*1330 ANTENNA_clkbuf_leaf_25_clk_A
*1331 ANTENNA_clkbuf_leaf_26_clk_A
*1332 ANTENNA_clkbuf_leaf_27_clk_A
*1333 ANTENNA_clkbuf_leaf_28_clk_A
*1334 ANTENNA_clkbuf_leaf_29_clk_A
*1335 ANTENNA_clkbuf_leaf_2_clk_A
*1336 ANTENNA_clkbuf_leaf_30_clk_A
*1337 ANTENNA_clkbuf_leaf_31_clk_A
*1338 ANTENNA_clkbuf_leaf_32_clk_A
*1339 ANTENNA_clkbuf_leaf_33_clk_A
*1340 ANTENNA_clkbuf_leaf_34_clk_A
*1341 ANTENNA_clkbuf_leaf_35_clk_A
*1342 ANTENNA_clkbuf_leaf_3_clk_A
*1343 ANTENNA_clkbuf_leaf_4_clk_A
*1344 ANTENNA_clkbuf_leaf_5_clk_A
*1345 ANTENNA_clkbuf_leaf_6_clk_A
*1346 ANTENNA_clkbuf_leaf_7_clk_A
*1347 ANTENNA_clkbuf_leaf_8_clk_A
*1348 ANTENNA_clkbuf_leaf_9_clk_A
*1349 ANTENNA_hold115_A
*1350 ANTENNA_hold13_A
*1351 ANTENNA_hold79_A
*1352 ANTENNA_input10_A
*1353 ANTENNA_input11_A
*1354 ANTENNA_input12_A
*1355 ANTENNA_input13_A
*1356 ANTENNA_input14_A
*1357 ANTENNA_input15_A
*1358 ANTENNA_input16_A
*1359 ANTENNA_input17_A
*1360 ANTENNA_input18_A
*1361 ANTENNA_input19_A
*1362 ANTENNA_input1_A
*1363 ANTENNA_input20_A
*1364 ANTENNA_input21_A
*1365 ANTENNA_input22_A
*1366 ANTENNA_input22_X
*1367 ANTENNA_input23_A
*1368 ANTENNA_input24_A
*1369 ANTENNA_input25_A
*1370 ANTENNA_input26_A
*1371 ANTENNA_input27_A
*1372 ANTENNA_input28_A
*1373 ANTENNA_input29_A
*1374 ANTENNA_input2_A
*1375 ANTENNA_input30_A
*1376 ANTENNA_input31_A
*1377 ANTENNA_input31_X
*1378 ANTENNA_input32_A
*1379 ANTENNA_input33_A
*1380 ANTENNA_input34_A
*1381 ANTENNA_input35_A
*1382 ANTENNA_input36_A
*1383 ANTENNA_input37_A
*1384 ANTENNA_input38_A
*1385 ANTENNA_input39_A
*1386 ANTENNA_input3_A
*1387 ANTENNA_input40_A
*1388 ANTENNA_input41_A
*1389 ANTENNA_input42_A
*1390 ANTENNA_input43_A
*1391 ANTENNA_input44_A
*1392 ANTENNA_input45_A
*1393 ANTENNA_input46_A
*1394 ANTENNA_input47_A
*1395 ANTENNA_input49_A
*1396 ANTENNA_input4_A
*1397 ANTENNA_input50_A
*1398 ANTENNA_input51_A
*1399 ANTENNA_input52_A
*1400 ANTENNA_input53_A
*1401 ANTENNA_input54_A
*1402 ANTENNA_input55_A
*1403 ANTENNA_input56_A
*1404 ANTENNA_input57_A
*1405 ANTENNA_input58_A
*1406 ANTENNA_input59_A
*1407 ANTENNA_input5_A
*1408 ANTENNA_input60_A
*1409 ANTENNA_input61_A
*1410 ANTENNA_input6_A
*1411 ANTENNA_input7_A
*1412 ANTENNA_input8_A
*1413 ANTENNA_input9_A
*1414 ANTENNA_merge741_D
*1415 ANTENNA_merge746_DE
*1416 ANTENNA_merge748_D
*1417 ANTENNA_output66_A
*1418 ANTENNA_output74_A
*1419 ANTENNA_output79_A
*1420 ANTENNA_output80_A
*1421 ANTENNA_output86_A
*1422 ANTENNA_s766_Q
*1423 FILLER_0_0_109
*1424 FILLER_0_0_113
*1425 FILLER_0_0_119
*1426 FILLER_0_0_125
*1427 FILLER_0_0_133
*1428 FILLER_0_0_139
*1429 FILLER_0_0_141
*1430 FILLER_0_0_147
*1431 FILLER_0_0_15
*1432 FILLER_0_0_153
*1433 FILLER_0_0_165
*1434 FILLER_0_0_169
*1435 FILLER_0_0_181
*1436 FILLER_0_0_193
*1437 FILLER_0_0_197
*1438 FILLER_0_0_209
*1439 FILLER_0_0_221
*1440 FILLER_0_0_225
*1441 FILLER_0_0_237
*1442 FILLER_0_0_249
*1443 FILLER_0_0_253
*1444 FILLER_0_0_265
*1445 FILLER_0_0_27
*1446 FILLER_0_0_277
*1447 FILLER_0_0_281
*1448 FILLER_0_0_29
*1449 FILLER_0_0_293
*1450 FILLER_0_0_3
*1451 FILLER_0_0_305
*1452 FILLER_0_0_309
*1453 FILLER_0_0_321
*1454 FILLER_0_0_329
*1455 FILLER_0_0_337
*1456 FILLER_0_0_343
*1457 FILLER_0_0_350
*1458 FILLER_0_0_362
*1459 FILLER_0_0_365
*1460 FILLER_0_0_377
*1461 FILLER_0_0_389
*1462 FILLER_0_0_393
*1463 FILLER_0_0_41
*1464 FILLER_0_0_421
*1465 FILLER_0_0_427
*1466 FILLER_0_0_434
*1467 FILLER_0_0_442
*1468 FILLER_0_0_449
*1469 FILLER_0_0_461
*1470 FILLER_0_0_473
*1471 FILLER_0_0_477
*1472 FILLER_0_0_489
*1473 FILLER_0_0_501
*1474 FILLER_0_0_505
*1475 FILLER_0_0_517
*1476 FILLER_0_0_529
*1477 FILLER_0_0_53
*1478 FILLER_0_0_533
*1479 FILLER_0_0_545
*1480 FILLER_0_0_557
*1481 FILLER_0_0_561
*1482 FILLER_0_0_57
*1483 FILLER_0_0_573
*1484 FILLER_0_0_585
*1485 FILLER_0_0_589
*1486 FILLER_0_0_601
*1487 FILLER_0_0_613
*1488 FILLER_0_0_617
*1489 FILLER_0_0_69
*1490 FILLER_0_0_81
*1491 FILLER_0_0_85
*1492 FILLER_0_0_97
*1493 FILLER_0_100_109
*1494 FILLER_0_100_121
*1495 FILLER_0_100_133
*1496 FILLER_0_100_139
*1497 FILLER_0_100_141
*1498 FILLER_0_100_15
*1499 FILLER_0_100_153
*1500 FILLER_0_100_165
*1501 FILLER_0_100_177
*1502 FILLER_0_100_189
*1503 FILLER_0_100_195
*1504 FILLER_0_100_197
*1505 FILLER_0_100_209
*1506 FILLER_0_100_221
*1507 FILLER_0_100_233
*1508 FILLER_0_100_245
*1509 FILLER_0_100_251
*1510 FILLER_0_100_253
*1511 FILLER_0_100_265
*1512 FILLER_0_100_27
*1513 FILLER_0_100_277
*1514 FILLER_0_100_289
*1515 FILLER_0_100_29
*1516 FILLER_0_100_3
*1517 FILLER_0_100_301
*1518 FILLER_0_100_307
*1519 FILLER_0_100_309
*1520 FILLER_0_100_321
*1521 FILLER_0_100_333
*1522 FILLER_0_100_345
*1523 FILLER_0_100_357
*1524 FILLER_0_100_363
*1525 FILLER_0_100_365
*1526 FILLER_0_100_377
*1527 FILLER_0_100_389
*1528 FILLER_0_100_401
*1529 FILLER_0_100_41
*1530 FILLER_0_100_413
*1531 FILLER_0_100_419
*1532 FILLER_0_100_421
*1533 FILLER_0_100_433
*1534 FILLER_0_100_445
*1535 FILLER_0_100_457
*1536 FILLER_0_100_469
*1537 FILLER_0_100_475
*1538 FILLER_0_100_477
*1539 FILLER_0_100_489
*1540 FILLER_0_100_501
*1541 FILLER_0_100_513
*1542 FILLER_0_100_525
*1543 FILLER_0_100_53
*1544 FILLER_0_100_531
*1545 FILLER_0_100_533
*1546 FILLER_0_100_545
*1547 FILLER_0_100_557
*1548 FILLER_0_100_569
*1549 FILLER_0_100_581
*1550 FILLER_0_100_587
*1551 FILLER_0_100_589
*1552 FILLER_0_100_601
*1553 FILLER_0_100_613
*1554 FILLER_0_100_65
*1555 FILLER_0_100_77
*1556 FILLER_0_100_83
*1557 FILLER_0_100_85
*1558 FILLER_0_100_97
*1559 FILLER_0_101_109
*1560 FILLER_0_101_113
*1561 FILLER_0_101_125
*1562 FILLER_0_101_137
*1563 FILLER_0_101_141
*1564 FILLER_0_101_15
*1565 FILLER_0_101_153
*1566 FILLER_0_101_165
*1567 FILLER_0_101_169
*1568 FILLER_0_101_181
*1569 FILLER_0_101_193
*1570 FILLER_0_101_197
*1571 FILLER_0_101_209
*1572 FILLER_0_101_221
*1573 FILLER_0_101_225
*1574 FILLER_0_101_237
*1575 FILLER_0_101_249
*1576 FILLER_0_101_253
*1577 FILLER_0_101_265
*1578 FILLER_0_101_27
*1579 FILLER_0_101_277
*1580 FILLER_0_101_281
*1581 FILLER_0_101_29
*1582 FILLER_0_101_293
*1583 FILLER_0_101_3
*1584 FILLER_0_101_305
*1585 FILLER_0_101_309
*1586 FILLER_0_101_321
*1587 FILLER_0_101_333
*1588 FILLER_0_101_337
*1589 FILLER_0_101_349
*1590 FILLER_0_101_361
*1591 FILLER_0_101_365
*1592 FILLER_0_101_377
*1593 FILLER_0_101_389
*1594 FILLER_0_101_393
*1595 FILLER_0_101_405
*1596 FILLER_0_101_41
*1597 FILLER_0_101_417
*1598 FILLER_0_101_421
*1599 FILLER_0_101_433
*1600 FILLER_0_101_445
*1601 FILLER_0_101_449
*1602 FILLER_0_101_461
*1603 FILLER_0_101_473
*1604 FILLER_0_101_477
*1605 FILLER_0_101_489
*1606 FILLER_0_101_501
*1607 FILLER_0_101_505
*1608 FILLER_0_101_517
*1609 FILLER_0_101_529
*1610 FILLER_0_101_53
*1611 FILLER_0_101_533
*1612 FILLER_0_101_545
*1613 FILLER_0_101_557
*1614 FILLER_0_101_561
*1615 FILLER_0_101_57
*1616 FILLER_0_101_573
*1617 FILLER_0_101_585
*1618 FILLER_0_101_589
*1619 FILLER_0_101_601
*1620 FILLER_0_101_613
*1621 FILLER_0_101_617
*1622 FILLER_0_101_69
*1623 FILLER_0_101_81
*1624 FILLER_0_101_85
*1625 FILLER_0_101_97
*1626 FILLER_0_10_108
*1627 FILLER_0_10_120
*1628 FILLER_0_10_13
*1629 FILLER_0_10_132
*1630 FILLER_0_10_163
*1631 FILLER_0_10_176
*1632 FILLER_0_10_188
*1633 FILLER_0_10_197
*1634 FILLER_0_10_205
*1635 FILLER_0_10_227
*1636 FILLER_0_10_239
*1637 FILLER_0_10_25
*1638 FILLER_0_10_251
*1639 FILLER_0_10_253
*1640 FILLER_0_10_265
*1641 FILLER_0_10_277
*1642 FILLER_0_10_289
*1643 FILLER_0_10_29
*1644 FILLER_0_10_301
*1645 FILLER_0_10_307
*1646 FILLER_0_10_309
*1647 FILLER_0_10_321
*1648 FILLER_0_10_329
*1649 FILLER_0_10_343
*1650 FILLER_0_10_365
*1651 FILLER_0_10_374
*1652 FILLER_0_10_398
*1653 FILLER_0_10_41
*1654 FILLER_0_10_429
*1655 FILLER_0_10_441
*1656 FILLER_0_10_453
*1657 FILLER_0_10_465
*1658 FILLER_0_10_473
*1659 FILLER_0_10_477
*1660 FILLER_0_10_489
*1661 FILLER_0_10_501
*1662 FILLER_0_10_513
*1663 FILLER_0_10_525
*1664 FILLER_0_10_531
*1665 FILLER_0_10_533
*1666 FILLER_0_10_545
*1667 FILLER_0_10_557
*1668 FILLER_0_10_569
*1669 FILLER_0_10_581
*1670 FILLER_0_10_587
*1671 FILLER_0_10_589
*1672 FILLER_0_10_601
*1673 FILLER_0_10_613
*1674 FILLER_0_10_70
*1675 FILLER_0_10_82
*1676 FILLER_0_10_85
*1677 FILLER_0_11_103
*1678 FILLER_0_11_164
*1679 FILLER_0_11_176
*1680 FILLER_0_11_188
*1681 FILLER_0_11_200
*1682 FILLER_0_11_212
*1683 FILLER_0_11_233
*1684 FILLER_0_11_245
*1685 FILLER_0_11_257
*1686 FILLER_0_11_269
*1687 FILLER_0_11_277
*1688 FILLER_0_11_281
*1689 FILLER_0_11_293
*1690 FILLER_0_11_3
*1691 FILLER_0_11_30
*1692 FILLER_0_11_305
*1693 FILLER_0_11_317
*1694 FILLER_0_11_329
*1695 FILLER_0_11_335
*1696 FILLER_0_11_388
*1697 FILLER_0_11_393
*1698 FILLER_0_11_401
*1699 FILLER_0_11_42
*1700 FILLER_0_11_423
*1701 FILLER_0_11_435
*1702 FILLER_0_11_447
*1703 FILLER_0_11_449
*1704 FILLER_0_11_461
*1705 FILLER_0_11_473
*1706 FILLER_0_11_485
*1707 FILLER_0_11_497
*1708 FILLER_0_11_503
*1709 FILLER_0_11_505
*1710 FILLER_0_11_517
*1711 FILLER_0_11_529
*1712 FILLER_0_11_541
*1713 FILLER_0_11_553
*1714 FILLER_0_11_559
*1715 FILLER_0_11_561
*1716 FILLER_0_11_573
*1717 FILLER_0_11_585
*1718 FILLER_0_11_597
*1719 FILLER_0_11_609
*1720 FILLER_0_11_615
*1721 FILLER_0_11_617
*1722 FILLER_0_11_67
*1723 FILLER_0_11_79
*1724 FILLER_0_11_91
*1725 FILLER_0_12_103
*1726 FILLER_0_12_115
*1727 FILLER_0_12_125
*1728 FILLER_0_12_141
*1729 FILLER_0_12_152
*1730 FILLER_0_12_164
*1731 FILLER_0_12_176
*1732 FILLER_0_12_188
*1733 FILLER_0_12_197
*1734 FILLER_0_12_20
*1735 FILLER_0_12_201
*1736 FILLER_0_12_241
*1737 FILLER_0_12_249
*1738 FILLER_0_12_253
*1739 FILLER_0_12_265
*1740 FILLER_0_12_277
*1741 FILLER_0_12_289
*1742 FILLER_0_12_29
*1743 FILLER_0_12_301
*1744 FILLER_0_12_307
*1745 FILLER_0_12_309
*1746 FILLER_0_12_321
*1747 FILLER_0_12_333
*1748 FILLER_0_12_345
*1749 FILLER_0_12_357
*1750 FILLER_0_12_363
*1751 FILLER_0_12_365
*1752 FILLER_0_12_369
*1753 FILLER_0_12_374
*1754 FILLER_0_12_382
*1755 FILLER_0_12_391
*1756 FILLER_0_12_403
*1757 FILLER_0_12_41
*1758 FILLER_0_12_415
*1759 FILLER_0_12_419
*1760 FILLER_0_12_421
*1761 FILLER_0_12_433
*1762 FILLER_0_12_445
*1763 FILLER_0_12_457
*1764 FILLER_0_12_469
*1765 FILLER_0_12_475
*1766 FILLER_0_12_477
*1767 FILLER_0_12_489
*1768 FILLER_0_12_501
*1769 FILLER_0_12_513
*1770 FILLER_0_12_525
*1771 FILLER_0_12_53
*1772 FILLER_0_12_531
*1773 FILLER_0_12_533
*1774 FILLER_0_12_545
*1775 FILLER_0_12_557
*1776 FILLER_0_12_569
*1777 FILLER_0_12_581
*1778 FILLER_0_12_587
*1779 FILLER_0_12_589
*1780 FILLER_0_12_601
*1781 FILLER_0_12_61
*1782 FILLER_0_12_613
*1783 FILLER_0_12_69
*1784 FILLER_0_12_79
*1785 FILLER_0_12_8
*1786 FILLER_0_12_83
*1787 FILLER_0_12_85
*1788 FILLER_0_12_93
*1789 FILLER_0_13_113
*1790 FILLER_0_13_125
*1791 FILLER_0_13_13