*SPEF "ieee 1481-1999"
*DESIGN "netlist_0"
*DATE "18:11:35 Tuesday August 06, 2024"
*VENDOR "The OpenROAD Project"
*PROGRAM "OpenROAD"
*VERSION "d423155d69de7f683a23f6916ead418a615ad4ad"
*DESIGN_FLOW "NAME_SCOPE LOCAL" "PIN_CAP NONE"
*DIVIDER /
*DELIMITER :
*BUS_DELIMITER []
*T_UNIT 1 NS
*C_UNIT 1 PF
*R_UNIT 1 OHM
*L_UNIT 1 HENRY

*NAME_MAP
*3 clk
*4 in0
*5 in1
*6 in10
*7 in11
*8 in12
*9 in13
*10 in14
*11 in15
*12 in16
*13 in17
*14 in18
*15 in19
*16 in2
*17 in20
*18 in21
*19 in22
*20 in23
*21 in24
*22 in25
*23 in26
*24 in27
*25 in28
*26 in29
*27 in3
*28 in30
*29 in31
*30 in32
*31 in33
*32 in34
*33 in35
*34 in36
*35 in37
*36 in38
*37 in39
*38 in4
*39 in40
*40 in41
*41 in42
*42 in43
*43 in44
*44 in45
*45 in46
*46 in47
*47 in48
*48 in49
*49 in5
*50 in50
*51 in51
*52 in52
*53 in53
*54 in54
*55 in55
*56 in56
*57 in57
*58 in58
*59 in59
*60 in6
*61 in60
*62 in61
*63 in7
*64 in8
*65 in9
*66 out0
*67 out1
*68 out10
*69 out11
*70 out12
*71 out13
*72 out14
*73 out15
*74 out16
*75 out17
*76 out18
*77 out19
*78 out2
*79 out20
*80 out21
*81 out22
*82 out23
*83 out24
*84 out25
*85 out26
*86 out27
*87 out28
*88 out29
*89 out3
*90 out30
*91 out31
*92 out32
*93 out33
*94 out34
*95 out35
*96 out36
*97 out37
*98 out38
*99 out39
*100 out4
*101 out40
*102 out41
*103 out42
*104 out43
*105 out44
*106 out45
*107 out46
*108 out47
*109 out48
*110 out49
*111 out5
*112 out50
*113 out51
*114 out52
*115 out53
*116 out54
*117 out55
*118 out56
*119 out57
*120 out58
*121 out59
*122 out6
*123 out60
*124 out61
*125 out7
*126 out8
*127 out9
*128 rst
*129 clknet_0_clk
*130 clknet_0_net396
*131 clknet_0_net462
*132 clknet_0_net469
*133 clknet_0_net478
*134 clknet_0_net480
*135 clknet_0_net485
*136 clknet_0_net493
*137 clknet_0_net574
*138 clknet_0_net592
*139 clknet_0_net594
*140 clknet_0_net600
*141 clknet_0_net681
*142 clknet_0_net682
*143 clknet_0_net683
*144 clknet_0_net701
*145 clknet_0_net702
*146 clknet_0_net719
*147 clknet_0_net736
*148 clknet_0_net737
*149 clknet_1_0__leaf_net396
*150 clknet_1_0__leaf_net462
*151 clknet_1_0__leaf_net469
*152 clknet_1_0__leaf_net478
*153 clknet_1_0__leaf_net480
*154 clknet_1_0__leaf_net485
*155 clknet_1_0__leaf_net493
*156 clknet_1_0__leaf_net574
*157 clknet_1_0__leaf_net592
*158 clknet_1_0__leaf_net594
*159 clknet_1_0__leaf_net600
*160 clknet_1_0__leaf_net681
*161 clknet_1_0__leaf_net682
*162 clknet_1_0__leaf_net683
*163 clknet_1_0__leaf_net701
*164 clknet_1_0__leaf_net702
*165 clknet_1_0__leaf_net719
*166 clknet_1_0__leaf_net736
*167 clknet_1_0__leaf_net737
*168 clknet_1_1__leaf_net396
*169 clknet_1_1__leaf_net462
*170 clknet_1_1__leaf_net469
*171 clknet_1_1__leaf_net478
*172 clknet_1_1__leaf_net480
*173 clknet_1_1__leaf_net485
*174 clknet_1_1__leaf_net493
*175 clknet_1_1__leaf_net574
*176 clknet_1_1__leaf_net592
*177 clknet_1_1__leaf_net594
*178 clknet_1_1__leaf_net600
*179 clknet_1_1__leaf_net681
*180 clknet_1_1__leaf_net682
*181 clknet_1_1__leaf_net683
*182 clknet_1_1__leaf_net701
*183 clknet_1_1__leaf_net702
*184 clknet_1_1__leaf_net719
*185 clknet_1_1__leaf_net736
*186 clknet_1_1__leaf_net737
*187 clknet_4_0_0_clk
*188 clknet_4_10_0_clk
*189 clknet_4_11_0_clk
*190 clknet_4_12_0_clk
*191 clknet_4_13_0_clk
*192 clknet_4_14_0_clk
*193 clknet_4_15_0_clk
*194 clknet_4_1_0_clk
*195 clknet_4_2_0_clk
*196 clknet_4_3_0_clk
*197 clknet_4_4_0_clk
*198 clknet_4_5_0_clk
*199 clknet_4_6_0_clk
*200 clknet_4_7_0_clk
*201 clknet_4_8_0_clk
*202 clknet_4_9_0_clk
*203 net0
*204 net1
*205 net10
*206 net100
*207 net101
*208 net102
*209 net103
*210 net104
*211 net105
*212 net106
*213 net107
*214 net108
*215 net109
*216 net11
*217 net110
*218 net111
*219 net112
*220 net113
*221 net114
*222 net115
*223 net116
*224 net117
*225 net118
*226 net119
*227 net12
*228 net120
*229 net121
*230 net122
*231 net123
*232 net124
*233 net125
*234 net126
*235 net127
*236 net128
*237 net129
*238 net13
*239 net130
*240 net131
*241 net132
*242 net133
*243 net134
*244 net135
*245 net136
*246 net137
*247 net138
*248 net139
*249 net14
*250 net140
*251 net141
*252 net142
*253 net143
*254 net144
*255 net145
*256 net146
*257 net147
*258 net148
*259 net149
*260 net15
*261 net150
*262 net151
*263 net152
*264 net153
*265 net154
*266 net155
*267 net156
*268 net157
*269 net158
*270 net159
*271 net16
*272 net160
*273 net161
*274 net162
*275 net163
*276 net164
*277 net165
*278 net166
*279 net167
*280 net168
*281 net169
*282 net17
*283 net170
*284 net171
*285 net172
*286 net173
*287 net174
*288 net175
*289 net176
*290 net177
*291 net178
*292 net179
*293 net18
*294 net180
*295 net181
*296 net182
*297 net183
*298 net184
*299 net185
*300 net186
*301 net187
*302 net188
*303 net189
*304 net19
*305 net190
*306 net191
*307 net192
*308 net193
*309 net194
*310 net195
*311 net196
*312 net197
*313 net198
*314 net199
*315 net2
*316 net20
*317 net200
*318 net201
*319 net202
*320 net203
*321 net204
*322 net205
*323 net206
*324 net207
*325 net208
*326 net209
*327 net21
*328 net210
*329 net211
*330 net212
*331 net213
*332 net214
*333 net215
*334 net216
*335 net217
*336 net218
*337 net219
*338 net22
*339 net220
*340 net221
*341 net222
*342 net223
*343 net224
*344 net225
*345 net226
*346 net227
*347 net228
*348 net229
*349 net23
*350 net230
*351 net231
*352 net232
*353 net233
*354 net234
*355 net235
*356 net236
*357 net237
*358 net238
*359 net239
*360 net24
*361 net240
*362 net241
*363 net242
*364 net243
*365 net244
*366 net245
*367 net246
*368 net247
*369 net248
*370 net249
*371 net25
*372 net250
*373 net251
*374 net252
*375 net253
*376 net254
*377 net255
*378 net256
*379 net257
*380 net258
*381 net259
*382 net26
*383 net260
*384 net261
*385 net262
*386 net263
*387 net264
*388 net265
*389 net266
*390 net267
*391 net268
*392 net269
*393 net27
*394 net270
*395 net271
*396 net272
*397 net273
*398 net274
*399 net275
*400 net276
*401 net277
*402 net278
*403 net279
*404 net28
*405 net280
*406 net281
*407 net282
*408 net283
*409 net284
*410 net285
*411 net286
*412 net287
*413 net288
*414 net289
*415 net29
*416 net290
*417 net291
*418 net292
*419 net293
*420 net294
*421 net295
*422 net296
*423 net297
*424 net298
*425 net299
*426 net3
*427 net30
*428 net300
*429 net301
*430 net302
*431 net303
*432 net304
*433 net305
*434 net306
*435 net307
*436 net308
*437 net309
*438 net31
*439 net310
*440 net311
*441 net312
*442 net313
*443 net314
*444 net315
*445 net316
*446 net317
*447 net318
*448 net319
*449 net32
*450 net320
*451 net321
*452 net322
*453 net323
*454 net324
*455 net325
*456 net326
*457 net327
*458 net328
*459 net329
*460 net33
*461 net330
*462 net331
*463 net332
*464 net333
*465 net334
*466 net335
*467 net336
*468 net337
*469 net338
*470 net339
*471 net34
*472 net340
*473 net341
*474 net342
*475 net343
*476 net344
*477 net345
*478 net346
*479 net347
*480 net348
*481 net349
*482 net35
*483 net350
*484 net351
*485 net352
*486 net353
*487 net354
*488 net355
*489 net356
*490 net357
*491 net358
*492 net359
*493 net36
*494 net360
*495 net361
*496 net362
*497 net363
*498 net364
*499 net365
*500 net366
*501 net367
*502 net368
*503 net369
*504 net37
*505 net370
*506 net371
*507 net372
*508 net373
*509 net374
*510 net375
*511 net376
*512 net377
*513 net378
*514 net379
*515 net38
*516 net380
*517 net381
*518 net382
*519 net383
*520 net384
*521 net385
*522 net386
*523 net387
*524 net388
*525 net389
*526 net39
*527 net390
*528 net391
*529 net392
*530 net393
*531 net394
*532 net395
*533 net396
*534 net397
*535 net398
*536 net399
*537 net4
*538 net40
*539 net400
*540 net401
*541 net402
*542 net403
*543 net404
*544 net405
*545 net406
*546 net407
*547 net408
*548 net409
*549 net41
*550 net410
*551 net411
*552 net412
*553 net413
*554 net414
*555 net415
*556 net416
*557 net417
*558 net418
*559 net419
*560 net42
*561 net420
*562 net421
*563 net422
*564 net423
*565 net424
*566 net425
*567 net426
*568 net427
*569 net428
*570 net429
*571 net43
*572 net430
*573 net431
*574 net432
*575 net433
*576 net434
*577 net435
*578 net436
*579 net437
*580 net438
*581 net439
*582 net44
*583 net440
*584 net441
*585 net442
*586 net443
*587 net444
*588 net445
*589 net446
*590 net447
*591 net448
*592 net449
*593 net45
*594 net450
*595 net451
*596 net452
*597 net453
*598 net454
*599 net455
*600 net456
*601 net457
*602 net458
*603 net459
*604 net46
*605 net460
*606 net461
*607 net462
*608 net463
*609 net464
*610 net465
*611 net466
*612 net467
*613 net468
*614 net469
*615 net47
*616 net470
*617 net471
*618 net472
*619 net473
*620 net474
*621 net475
*622 net476
*623 net477
*624 net478
*625 net479
*626 net48
*627 net480
*628 net481
*629 net482
*630 net483
*631 net484
*632 net485
*633 net486
*634 net487
*635 net488
*636 net489
*637 net49
*638 net490
*639 net491
*640 net492
*641 net493
*642 net494
*643 net495
*644 net496
*645 net497
*646 net498
*647 net499
*648 net5
*649 net50
*650 net500
*651 net501
*652 net502
*653 net503
*654 net504
*655 net505
*656 net506
*657 net507
*658 net508
*659 net509
*660 net51
*661 net510
*662 net511
*663 net512
*664 net513
*665 net514
*666 net515
*667 net516
*668 net517
*669 net518
*670 net519
*671 net52
*672 net520
*673 net521
*674 net522
*675 net523
*676 net524
*677 net525
*678 net526
*679 net527
*680 net528
*681 net529
*682 net53
*683 net530
*684 net531
*685 net532
*686 net533
*687 net534
*688 net535
*689 net536
*690 net537
*691 net538
*692 net539
*693 net54
*694 net540
*695 net541
*696 net542
*697 net543
*698 net544
*699 net545
*700 net546
*701 net547
*702 net548
*703 net549
*704 net55
*705 net550
*706 net551
*707 net552
*708 net553
*709 net554
*710 net555
*711 net556
*712 net557
*713 net558
*714 net559
*715 net56
*716 net560
*717 net561
*718 net562
*719 net563
*720 net564
*721 net565
*722 net566
*723 net567
*724 net568
*725 net569
*726 net57
*727 net570
*728 net571
*729 net572
*730 net573
*731 net574
*732 net575
*733 net576
*734 net577
*735 net578
*736 net579
*737 net58
*738 net580
*739 net581
*740 net582
*741 net583
*742 net584
*743 net585
*744 net586
*745 net587
*746 net588
*747 net589
*748 net59
*749 net590
*750 net591
*751 net592
*752 net593
*753 net594
*754 net595
*755 net596
*756 net597
*757 net598
*758 net599
*759 net6
*760 net60
*761 net600
*762 net601
*763 net602
*764 net603
*765 net604
*766 net605
*767 net606
*768 net607
*769 net608
*770 net609
*771 net61
*772 net610
*773 net611
*774 net612
*775 net613
*776 net614
*777 net615
*778 net616
*779 net617
*780 net618
*781 net619
*782 net62
*783 net620
*784 net621
*785 net622
*786 net623
*787 net624
*788 net625
*789 net626
*790 net627
*791 net628
*792 net629
*793 net63
*794 net630
*795 net631
*796 net632
*797 net633
*798 net634
*799 net635
*800 net636
*801 net637
*802 net638
*803 net639
*804 net64
*805 net640
*806 net641
*807 net642
*808 net643
*809 net644
*810 net645
*811 net646
*812 net647
*813 net648
*814 net649
*815 net65
*816 net650
*817 net651
*818 net652
*819 net653
*820 net654
*821 net655
*822 net656
*823 net657
*824 net658
*825 net659
*826 net66
*827 net660
*828 net661
*829 net662
*830 net663
*831 net664
*832 net665
*833 net666
*834 net667
*835 net668
*836 net669
*837 net67
*838 net670
*839 net671
*840 net672
*841 net673
*842 net674
*843 net675
*844 net676
*845 net677
*846 net678
*847 net679
*848 net68
*849 net680
*850 net681
*851 net682
*852 net683
*853 net684
*854 net685
*855 net686
*856 net687
*857 net688
*858 net689
*859 net69
*860 net690
*861 net691
*862 net692
*863 net693
*864 net694
*865 net695
*866 net696
*867 net697
*868 net698
*869 net699
*870 net7
*871 net70
*872 net700
*873 net701
*874 net702
*875 net703
*876 net704
*877 net705
*878 net706
*879 net707
*880 net708
*881 net709
*882 net71
*883 net710
*884 net711
*885 net712
*886 net713
*887 net714
*888 net715
*889 net716
*890 net717
*891 net718
*892 net719
*893 net72
*894 net720
*895 net721
*896 net722
*897 net723
*898 net724
*899 net725
*900 net726
*901 net727
*902 net728
*903 net729
*904 net73
*905 net730
*906 net731
*907 net732
*908 net733
*909 net734
*910 net735
*911 net736
*912 net737
*913 net738
*914 net739
*915 net74
*916 net740
*917 net741
*918 net742
*919 net743
*920 net744
*921 net745
*922 net746
*923 net747
*924 net748
*925 net749
*926 net75
*927 net750
*928 net751
*929 net752
*930 net753
*931 net754
*932 net755
*933 net756
*934 net757
*935 net758
*936 net759
*937 net76
*938 net760
*939 net761
*940 net762
*941 net763
*942 net764
*943 net765
*944 net766
*945 net767
*946 net768
*947 net769
*948 net77
*949 net770
*950 net771
*951 net772
*952 net773
*953 net774
*954 net775
*955 net776
*956 net777
*957 net778
*958 net779
*959 net78
*960 net780
*961 net781
*962 net782
*963 net783
*964 net784
*965 net785
*966 net786
*967 net787
*968 net788
*969 net789
*970 net79
*971 net790
*972 net791
*973 net792
*974 net793
*975 net794
*976 net795
*977 net796
*978 net797
*979 net798
*980 net799
*981 net8
*982 net80
*983 net800
*984 net801
*985 net802
*986 net803
*987 net804
*988 net805
*989 net806
*990 net807
*991 net808
*992 net809
*993 net81
*994 net810
*995 net811
*996 net812
*997 net813
*998 net814
*999 net815
*1000 net816
*1001 net817
*1002 net818
*1003 net819
*1004 net82
*1005 net820
*1006 net821
*1007 net822
*1008 net823
*1009 net824
*1010 net825
*1011 net826
*1012 net827
*1013 net828
*1014 net829
*1015 net83
*1016 net830
*1017 net831
*1018 net832
*1019 net833
*1020 net834
*1021 net835
*1022 net836
*1023 net837
*1024 net838
*1025 net839
*1026 net84
*1027 net840
*1028 net841
*1029 net842
*1030 net843
*1031 net844
*1032 net845
*1033 net846
*1034 net847
*1035 net848
*1036 net849
*1037 net85
*1038 net850
*1039 net851
*1040 net852
*1041 net853
*1042 net854
*1043 net855
*1044 net856
*1045 net857
*1046 net858
*1047 net859
*1048 net86
*1049 net860
*1050 net861
*1051 net862
*1052 net863
*1053 net864
*1054 net865
*1055 net866
*1056 net867
*1057 net868
*1058 net869
*1059 net87
*1060 net870
*1061 net871
*1062 net872
*1063 net873
*1064 net874
*1065 net875
*1066 net876
*1067 net877
*1068 net878
*1069 net879
*1070 net88
*1071 net880
*1072 net881
*1073 net882
*1074 net883
*1075 net884
*1076 net885
*1077 net886
*1078 net887
*1079 net888
*1080 net889
*1081 net89
*1082 net890
*1083 net891
*1084 net892
*1085 net893
*1086 net894
*1087 net895
*1088 net896
*1089 net897
*1090 net898
*1091 net899
*1092 net9
*1093 net90
*1094 net900
*1095 net901
*1096 net902
*1097 net903
*1098 net904
*1099 net905
*1100 net906
*1101 net907
*1102 net908
*1103 net909
*1104 net91
*1105 net910
*1106 net911
*1107 net912
*1108 net913
*1109 net914
*1110 net915
*1111 net916
*1112 net917
*1113 net918
*1114 net919
*1115 net92
*1116 net920
*1117 net921
*1118 net922
*1119 net923
*1120 net924
*1121 net925
*1122 net926
*1123 net927
*1124 net928
*1125 net929
*1126 net93
*1127 net930
*1128 net931
*1129 net932
*1130 net933
*1131 net934
*1132 net935
*1133 net936
*1134 net937
*1135 net938
*1136 net939
*1137 net94
*1138 net940
*1139 net941
*1140 net942
*1141 net943
*1142 net944
*1143 net945
*1144 net946
*1145 net947
*1146 net948
*1147 net949
*1148 net95
*1149 net950
*1150 net951
*1151 net952
*1152 net953
*1153 net954
*1154 net955
*1155 net956
*1156 net957
*1157 net958
*1158 net959
*1159 net96
*1160 net960
*1161 net961
*1162 net962
*1163 net963
*1164 net964
*1165 net965
*1166 net966
*1167 net967
*1168 net968
*1169 net969
*1170 net97
*1171 net970
*1172 net971
*1173 net972
*1174 net973
*1175 net974
*1176 net975
*1177 net976
*1178 net977
*1179 net978
*1180 net98
*1181 net99
*1182 ANTENNA_1
*1183 ANTENNA_c100_A
*1184 ANTENNA_c103_C
*1185 ANTENNA_c103_X
*1186 ANTENNA_c104_A
*1187 ANTENNA_c105_A
*1188 ANTENNA_c105_B
*1189 ANTENNA_c107_B
*1190 ANTENNA_c108_C
*1191 ANTENNA_c109_CLK_N
*1192 ANTENNA_c110_B
*1193 ANTENNA_c111_B
*1194 ANTENNA_c112_A
*1195 ANTENNA_c112_C
*1196 ANTENNA_c113_A
*1197 ANTENNA_c113_C
*1198 ANTENNA_c118_B
*1199 ANTENNA_c119_B
*1200 ANTENNA_c120_B
*1201 ANTENNA_c123_X
*1202 ANTENNA_c124_C
*1203 ANTENNA_c126_A2
*1204 ANTENNA_c126_C1
*1205 ANTENNA_c126_D1
*1206 ANTENNA_c127_C_N
*1207 ANTENNA_c128_D1
*1208 ANTENNA_c129_CLK_N
*1209 ANTENNA_c129_SCD
*1210 ANTENNA_c129_SET_B
*1211 ANTENNA_c130_CLK_N
*1212 ANTENNA_c130_D
*1213 ANTENNA_c130_SCE
*1214 ANTENNA_c131_A2
*1215 ANTENNA_c132_A
*1216 ANTENNA_c132_B
*1217 ANTENNA_c132_X
*1218 ANTENNA_c133_A
*1219 ANTENNA_c133_B
*1220 ANTENNA_c133_X
*1221 ANTENNA_c134_A
*1222 ANTENNA_c134_B
*1223 ANTENNA_c134_X
*1224 ANTENNA_c135_A
*1225 ANTENNA_c135_B
*1226 ANTENNA_c136_A
*1227 ANTENNA_c136_B
*1228 ANTENNA_c137_B
*1229 ANTENNA_c137_X
*1230 ANTENNA_c138_A
*1231 ANTENNA_c138_B
*1232 ANTENNA_c139_A
*1233 ANTENNA_c139_B
*1234 ANTENNA_c139_X
*1235 ANTENNA_c140_B
*1236 ANTENNA_c140_C
*1237 ANTENNA_c140_X
*1238 ANTENNA_c141_A
*1239 ANTENNA_c141_B
*1240 ANTENNA_c141_X
*1241 ANTENNA_c142_A
*1242 ANTENNA_c142_B
*1243 ANTENNA_c142_C
*1244 ANTENNA_c142_X
*1245 ANTENNA_c143_A
*1246 ANTENNA_c143_X
*1247 ANTENNA_c144_A
*1248 ANTENNA_c144_X
*1249 ANTENNA_c145_B
*1250 ANTENNA_c146_A
*1251 ANTENNA_c146_B
*1252 ANTENNA_c146_X
*1253 ANTENNA_c147_A0
*1254 ANTENNA_c147_A1
*1255 ANTENNA_c147_A2
*1256 ANTENNA_c147_A3
*1257 ANTENNA_c147_S0
*1258 ANTENNA_c147_S1
*1259 ANTENNA_c148_A
*1260 ANTENNA_c148_B
*1261 ANTENNA_c149_A
*1262 ANTENNA_c149_B
*1263 ANTENNA_c149_X
*1264 ANTENNA_c150_A
*1265 ANTENNA_c150_B
*1266 ANTENNA_c150_X
*1267 ANTENNA_c151_A
*1268 ANTENNA_c151_C
*1269 ANTENNA_c151_X
*1270 ANTENNA_c152_C
*1271 ANTENNA_c152_X
*1272 ANTENNA_c153_A
*1273 ANTENNA_c153_B
*1274 ANTENNA_c153_X
*1275 ANTENNA_c154_B
*1276 ANTENNA_c154_X
*1277 ANTENNA_c155_A
*1278 ANTENNA_c156_A
*1279 ANTENNA_c157_A2
*1280 ANTENNA_c157_B1
*1281 ANTENNA_c157_C1
*1282 ANTENNA_c157_D1
*1283 ANTENNA_c158_A
*1284 ANTENNA_c158_B
*1285 ANTENNA_c158_X
*1286 ANTENNA_c159_B
*1287 ANTENNA_c160_B
*1288 ANTENNA_c160_X
*1289 ANTENNA_c161_A
*1290 ANTENNA_c161_B
*1291 ANTENNA_c161_C_N
*1292 ANTENNA_c162_A
*1293 ANTENNA_c162_B
*1294 ANTENNA_c162_C
*1295 ANTENNA_c162_X
*1296 ANTENNA_c163_A
*1297 ANTENNA_c163_C
*1298 ANTENNA_c164_A2
*1299 ANTENNA_c164_B1
*1300 ANTENNA_c164_C1
*1301 ANTENNA_c164_D1
*1302 ANTENNA_c164_X
*1303 ANTENNA_c165_B
*1304 ANTENNA_c166_A
*1305 ANTENNA_c166_B
*1306 ANTENNA_c166_D_N
*1307 ANTENNA_c167_B
*1308 ANTENNA_c168_A1
*1309 ANTENNA_c168_A2
*1310 ANTENNA_c168_B1
*1311 ANTENNA_c168_D1
*1312 ANTENNA_c168_X
*1313 ANTENNA_c170_B1
*1314 ANTENNA_c170_D1
*1315 ANTENNA_c171_A
*1316 ANTENNA_c171_C_N
*1317 ANTENNA_c171_D_N
*1318 ANTENNA_c172_A1
*1319 ANTENNA_c172_C1
*1320 ANTENNA_c172_D1
*1321 ANTENNA_c173_A
*1322 ANTENNA_c173_B
*1323 ANTENNA_c173_C_N
*1324 ANTENNA_c174_B
*1325 ANTENNA_c174_X
*1326 ANTENNA_c175_C1
*1327 ANTENNA_c175_D1
*1328 ANTENNA_c175_X
*1329 ANTENNA_c176_A
*1330 ANTENNA_c176_C
*1331 ANTENNA_c176_X
*1332 ANTENNA_c177_A
*1333 ANTENNA_c177_C
*1334 ANTENNA_c177_X
*1335 ANTENNA_c178_A
*1336 ANTENNA_c178_B
*1337 ANTENNA_c178_C
*1338 ANTENNA_c178_X
*1339 ANTENNA_c179_A
*1340 ANTENNA_c179_B
*1341 ANTENNA_c180_A
*1342 ANTENNA_c180_C
*1343 ANTENNA_c181_A
*1344 ANTENNA_c181_B
*1345 ANTENNA_c182_B
*1346 ANTENNA_c183_A
*1347 ANTENNA_c183_B
*1348 ANTENNA_c183_C
*1349 ANTENNA_c183_X
*1350 ANTENNA_c184_A
*1351 ANTENNA_c184_C_N
*1352 ANTENNA_c185_B
*1353 ANTENNA_c185_C_N
*1354 ANTENNA_c185_D_N
*1355 ANTENNA_c185_X
*1356 ANTENNA_c186_B
*1357 ANTENNA_c186_X
*1358 ANTENNA_c187_A
*1359 ANTENNA_c187_X
*1360 ANTENNA_c188_A
*1361 ANTENNA_c188_B
*1362 ANTENNA_c188_C_N
*1363 ANTENNA_c188_X
*1364 ANTENNA_c189_A2
*1365 ANTENNA_c189_A3
*1366 ANTENNA_c189_S0
*1367 ANTENNA_c189_S1
*1368 ANTENNA_c190_A
*1369 ANTENNA_c190_C_N
*1370 ANTENNA_c190_D_N
*1371 ANTENNA_c191_A
*1372 ANTENNA_c191_B
*1373 ANTENNA_c191_C_N
*1374 ANTENNA_c191_D_N
*1375 ANTENNA_c191_X
*1376 ANTENNA_c192_A2
*1377 ANTENNA_c192_S0
*1378 ANTENNA_c193_A
*1379 ANTENNA_c193_C
*1380 ANTENNA_c194_A
*1381 ANTENNA_c194_C
*1382 ANTENNA_c194_X
*1383 ANTENNA_c195_D_N
*1384 ANTENNA_c195_X
*1385 ANTENNA_c196_A0
*1386 ANTENNA_c196_A2
*1387 ANTENNA_c196_A3
*1388 ANTENNA_c196_S0
*1389 ANTENNA_c196_S1
*1390 ANTENNA_c197_A0
*1391 ANTENNA_c197_A1
*1392 ANTENNA_c198_B
*1393 ANTENNA_c198_C
*1394 ANTENNA_c198_X
*1395 ANTENNA_c199_A
*1396 ANTENNA_c199_X
*1397 ANTENNA_c200_A
*1398 ANTENNA_c201_A1
*1399 ANTENNA_c201_B1
*1400 ANTENNA_c201_C1
*1401 ANTENNA_c201_D1
*1402 ANTENNA_c202_B
*1403 ANTENNA_c202_C
*1404 ANTENNA_c203_A
*1405 ANTENNA_c203_B
*1406 ANTENNA_c204_A
*1407 ANTENNA_c204_B
*1408 ANTENNA_c204_C
*1409 ANTENNA_c205_C
*1410 ANTENNA_c206_B
*1411 ANTENNA_c206_D_N
*1412 ANTENNA_c207_C
*1413 ANTENNA_c207_X
*1414 ANTENNA_c208_B
*1415 ANTENNA_c208_X
*1416 ANTENNA_c209_A
*1417 ANTENNA_c210_B
*1418 ANTENNA_c210_D_N
*1419 ANTENNA_c210_X
*1420 ANTENNA_c211_B
*1421 ANTENNA_c212_A
*1422 ANTENNA_c212_C_N
*1423 ANTENNA_c212_D_N
*1424 ANTENNA_c213_B
*1425 ANTENNA_c213_D_N
*1426 ANTENNA_c214_B
*1427 ANTENNA_c214_C
*1428 ANTENNA_c215_B
*1429 ANTENNA_c215_C_N
*1430 ANTENNA_c215_X
*1431 ANTENNA_c216_C_N
*1432 ANTENNA_c218_X
*1433 ANTENNA_c219_S1
*1434 ANTENNA_c221_B
*1435 ANTENNA_c223_A
*1436 ANTENNA_c223_C
*1437 ANTENNA_c223_X
*1438 ANTENNA_c224_B
*1439 ANTENNA_c224_C
*1440 ANTENNA_c224_X
*1441 ANTENNA_c226_A
*1442 ANTENNA_c226_B
*1443 ANTENNA_c226_C
*1444 ANTENNA_c227_A
*1445 ANTENNA_c227_B
*1446 ANTENNA_c227_C_N
*1447 ANTENNA_c228_B
*1448 ANTENNA_c229_A
*1449 ANTENNA_c230_B
*1450 ANTENNA_c230_X
*1451 ANTENNA_c231_C
*1452 ANTENNA_c232_B
*1453 ANTENNA_c233_A
*1454 ANTENNA_c234_B
*1455 ANTENNA_c234_C
*1456 ANTENNA_c234_X
*1457 ANTENNA_c236_B
*1458 ANTENNA_c236_C_N
*1459 ANTENNA_c238_A2
*1460 ANTENNA_c238_C1
*1461 ANTENNA_c238_D1
*1462 ANTENNA_c238_X
*1463 ANTENNA_c240_B1
*1464 ANTENNA_c240_C1
*1465 ANTENNA_c240_D1
*1466 ANTENNA_c241_A
*1467 ANTENNA_c241_B
*1468 ANTENNA_c242_A
*1469 ANTENNA_c243_C
*1470 ANTENNA_c244_A2
*1471 ANTENNA_c244_B1
*1472 ANTENNA_c245_B
*1473 ANTENNA_c245_C
*1474 ANTENNA_c245_X
*1475 ANTENNA_c247_A1
*1476 ANTENNA_c247_B1
*1477 ANTENNA_c247_D1
*1478 ANTENNA_c248_A2
*1479 ANTENNA_c248_A3
*1480 ANTENNA_c248_S0
*1481 ANTENNA_c248_S1
*1482 ANTENNA_c250_A1
*1483 ANTENNA_c250_B1
*1484 ANTENNA_c252_CLK
*1485 ANTENNA_c252_D
*1486 ANTENNA_c252_RESET_B
*1487 ANTENNA_c252_SCE
*1488 ANTENNA_c253_A2
*1489 ANTENNA_c253_B1
*1490 ANTENNA_c253_D1
*1491 ANTENNA_c254_C
*1492 ANTENNA_c255_A
*1493 ANTENNA_c256_CLK_N
*1494 ANTENNA_c256_SCE
*1495 ANTENNA_c257_D1
*1496 ANTENNA_c259_CLK_N
*1497 ANTENNA_c259_SCD
*1498 ANTENNA_c260_CLK
*1499 ANTENNA_c260_RESET_B
*1500 ANTENNA_c260_SCE
*1501 ANTENNA_c262_A
*1502 ANTENNA_c263_A1
*1503 ANTENNA_c263_B1
*1504 ANTENNA_c263_C1
*1505 ANTENNA_c264_A
*1506 ANTENNA_c264_B
*1507 ANTENNA_c264_X
*1508 ANTENNA_c265_B
*1509 ANTENNA_c266_A
*1510 ANTENNA_c266_B
*1511 ANTENNA_c266_X
*1512 ANTENNA_c267_A
*1513 ANTENNA_c268_A
*1514 ANTENNA_c268_B
*1515 ANTENNA_c268_X
*1516 ANTENNA_c269_B
*1517 ANTENNA_c269_X
*1518 ANTENNA_c270_A
*1519 ANTENNA_c270_B
*1520 ANTENNA_c270_X
*1521 ANTENNA_c271_B
*1522 ANTENNA_c272_X
*1523 ANTENNA_c273_A2
*1524 ANTENNA_c273_B1
*1525 ANTENNA_c273_C1
*1526 ANTENNA_c274_A
*1527 ANTENNA_c274_B
*1528 ANTENNA_c276_A
*1529 ANTENNA_c276_C
*1530 ANTENNA_c276_X
*1531 ANTENNA_c277_A
*1532 ANTENNA_c277_X
*1533 ANTENNA_c278_B
*1534 ANTENNA_c278_X
*1535 ANTENNA_c279_A
*1536 ANTENNA_c280_A1
*1537 ANTENNA_c280_A2
*1538 ANTENNA_c280_B1
*1539 ANTENNA_c280_D1
*1540 ANTENNA_c280_X
*1541 ANTENNA_c281_B
*1542 ANTENNA_c281_X
*1543 ANTENNA_c282_A
*1544 ANTENNA_c283_A
*1545 ANTENNA_c283_B
*1546 ANTENNA_c283_X
*1547 ANTENNA_c284_A1
*1548 ANTENNA_c284_A2
*1549 ANTENNA_c284_B1
*1550 ANTENNA_c284_C1
*1551 ANTENNA_c285_A
*1552 ANTENNA_c285_B
*1553 ANTENNA_c285_C_N
*1554 ANTENNA_c286_A
*1555 ANTENNA_c286_B
*1556 ANTENNA_c287_A
*1557 ANTENNA_c287_B
*1558 ANTENNA_c287_X
*1559 ANTENNA_c288_C
*1560 ANTENNA_c288_X
*1561 ANTENNA_c289_B
*1562 ANTENNA_c289_C
*1563 ANTENNA_c289_X
*1564 ANTENNA_c290_A
*1565 ANTENNA_c290_X
*1566 ANTENNA_c291_X
*1567 ANTENNA_c292_A
*1568 ANTENNA_c293_A
*1569 ANTENNA_c293_B
*1570 ANTENNA_c294_A0
*1571 ANTENNA_c294_A1
*1572 ANTENNA_c294_S0
*1573 ANTENNA_c294_S1
*1574 ANTENNA_c295_B
*1575 ANTENNA_c295_X
*1576 ANTENNA_c296_A1
*1577 ANTENNA_c296_B1
*1578 ANTENNA_c296_C1
*1579 ANTENNA_c296_D1
*1580 ANTENNA_c296_X
*1581 ANTENNA_c297_B
*1582 ANTENNA_c298_A
*1583 ANTENNA_c299_B
*1584 ANTENNA_c299_X
*1585 ANTENNA_c300_A2
*1586 ANTENNA_c300_B1
*1587 ANTENNA_c300_D1
*1588 ANTENNA_c300_X
*1589 ANTENNA_c301_A
*1590 ANTENNA_c301_C
*1591 ANTENNA_c301_X
*1592 ANTENNA_c302_X
*1593 ANTENNA_c303_B
*1594 ANTENNA_c303_C_N
*1595 ANTENNA_c303_D_N
*1596 ANTENNA_c304_A1
*1597 ANTENNA_c304_A2
*1598 ANTENNA_c304_B1
*1599 ANTENNA_c304_C1
*1600 ANTENNA_c304_D1
*1601 ANTENNA_c305_C_N
*1602 ANTENNA_c305_D_N
*1603 ANTENNA_c306_C
*1604 ANTENNA_c307_B
*1605 ANTENNA_c307_C_N
*1606 ANTENNA_c308_A
*1607 ANTENNA_c308_B
*1608 ANTENNA_c309_A1
*1609 ANTENNA_c309_C1
*1610 ANTENNA_c309_D1
*1611 ANTENNA_c309_X
*1612 ANTENNA_c310_A
*1613 ANTENNA_c310_B
*1614 ANTENNA_c310_C_N
*1615 ANTENNA_c310_D_N
*1616 ANTENNA_c311_B
*1617 ANTENNA_c311_X
*1618 ANTENNA_c312_B
*1619 ANTENNA_c313_A
*1620 ANTENNA_c314_A
*1621 ANTENNA_c314_C
*1622 ANTENNA_c315_B
*1623 ANTENNA_c315_X
*1624 ANTENNA_c316_C
*1625 ANTENNA_c317_B
*1626 ANTENNA_c318_B
*1627 ANTENNA_c318_X
*1628 ANTENNA_c319_C
*1629 ANTENNA_c320_B
*1630 ANTENNA_c321_X
*1631 ANTENNA_c322_A
*1632 ANTENNA_c322_C
*1633 ANTENNA_c322_X
*1634 ANTENNA_c323_X
*1635 ANTENNA_c324_A
*1636 ANTENNA_c324_B
*1637 ANTENNA_c324_X
*1638 ANTENNA_c325_A0
*1639 ANTENNA_c325_A1
*1640 ANTENNA_c325_A3
*1641 ANTENNA_c325_S1
*1642 ANTENNA_c327_B1
*1643 ANTENNA_c327_C1
*1644 ANTENNA_c327_X
*1645 ANTENNA_c328_A3
*1646 ANTENNA_c328_S0
*1647 ANTENNA_c328_S1
*1648 ANTENNA_c329_A1
*1649 ANTENNA_c329_A2
*1650 ANTENNA_c329_A3
*1651 ANTENNA_c329_S1
*1652 ANTENNA_c330_B
*1653 ANTENNA_c330_C_N
*1654 ANTENNA_c330_D_N
*1655 ANTENNA_c331_A
*1656 ANTENNA_c331_B
*1657 ANTENNA_c332_A1
*1658 ANTENNA_c332_A2
*1659 ANTENNA_c332_S0
*1660 ANTENNA_c332_S1
*1661 ANTENNA_c333_CLK_N
*1662 ANTENNA_c333_SCD
*1663 ANTENNA_c333_SCE
*1664 ANTENNA_c333_SET_B
*1665 ANTENNA_c334_C_N
*1666 ANTENNA_c334_D_N
*1667 ANTENNA_c335_CLK
*1668 ANTENNA_c335_SCD
*1669 ANTENNA_c335_SCE
*1670 ANTENNA_c336_CLK_N
*1671 ANTENNA_c336_SET_B
*1672 ANTENNA_c337_A2
*1673 ANTENNA_c337_B1
*1674 ANTENNA_c337_C1
*1675 ANTENNA_c338_A1
*1676 ANTENNA_c338_A2
*1677 ANTENNA_c338_S0
*1678 ANTENNA_c338_X
*1679 ANTENNA_c339_B
*1680 ANTENNA_c340_B
*1681 ANTENNA_c340_C
*1682 ANTENNA_c341_D_N
*1683 ANTENNA_c342_SCD
*1684 ANTENNA_c342_SCE
*1685 ANTENNA_c343_Q
*1686 ANTENNA_c343_Q_N
*1687 ANTENNA_c343_SCD
*1688 ANTENNA_c343_SCE
*1689 ANTENNA_c343_SET_B
*1690 ANTENNA_c344_A
*1691 ANTENNA_c344_X
*1692 ANTENNA_c345_C_N
*1693 ANTENNA_c345_X
*1694 ANTENNA_c346_C_N
*1695 ANTENNA_c346_D_N
*1696 ANTENNA_c347_A
*1697 ANTENNA_c347_B
*1698 ANTENNA_c347_C_N
*1699 ANTENNA_c348_B
*1700 ANTENNA_c349_A1
*1701 ANTENNA_c349_A2
*1702 ANTENNA_c349_A3
*1703 ANTENNA_c349_S1
*1704 ANTENNA_c350_SCD
*1705 ANTENNA_c351_SCE
*1706 ANTENNA_c352_A1
*1707 ANTENNA_c352_A2
*1708 ANTENNA_c352_A3
*1709 ANTENNA_c352_S0
*1710 ANTENNA_c352_S1
*1711 ANTENNA_c353_A1
*1712 ANTENNA_c353_A2
*1713 ANTENNA_c353_C1
*1714 ANTENNA_c354_C
*1715 ANTENNA_c355_A1
*1716 ANTENNA_c355_A2
*1717 ANTENNA_c355_C1
*1718 ANTENNA_c355_X
*1719 ANTENNA_c356_A2
*1720 ANTENNA_c356_B1
*1721 ANTENNA_c358_B1
*1722 ANTENNA_c358_C1
*1723 ANTENNA_c358_D1
*1724 ANTENNA_c359_CLK_N
*1725 ANTENNA_c359_D
*1726 ANTENNA_c359_Q
*1727 ANTENNA_c359_RESET_B
*1728 ANTENNA_c360_B
*1729 ANTENNA_c360_C_N
*1730 ANTENNA_c361_CLK
*1731 ANTENNA_c361_RESET_B
*1732 ANTENNA_c361_SCD
*1733 ANTENNA_c361_SET_B
*1734 ANTENNA_c362_A
*1735 ANTENNA_c362_B
*1736 ANTENNA_c362_C_N
*1737 ANTENNA_c362_D_N
*1738 ANTENNA_c363_C_N
*1739 ANTENNA_c363_D_N
*1740 ANTENNA_c363_X
*1741 ANTENNA_c364_A1
*1742 ANTENNA_c364_B1
*1743 ANTENNA_c364_C1
*1744 ANTENNA_c365_X
*1745 ANTENNA_c366_CLK_N
*1746 ANTENNA_c366_D
*1747 ANTENNA_c366_Q
*1748 ANTENNA_c366_SCE
*1749 ANTENNA_c367_CLK_N
*1750 ANTENNA_c367_SCE
*1751 ANTENNA_c368_D
*1752 ANTENNA_c368_Q
*1753 ANTENNA_c368_Q_N
*1754 ANTENNA_c368_RESET_B
*1755 ANTENNA_c368_SCD
*1756 ANTENNA_c368_SET_B
*1757 ANTENNA_c369_D
*1758 ANTENNA_c369_RESET_B
*1759 ANTENNA_c369_SCE
*1760 ANTENNA_c369_SET_B
*1761 ANTENNA_c370_A2
*1762 ANTENNA_c370_D1
*1763 ANTENNA_c371_CLK
*1764 ANTENNA_c372_S1
*1765 ANTENNA_c392_A0
*1766 ANTENNA_c392_A3
*1767 ANTENNA_c392_S0
*1768 ANTENNA_c393_A3
*1769 ANTENNA_c394_A1
*1770 ANTENNA_c395_A0
*1771 ANTENNA_c395_A3
*1772 ANTENNA_c396_B
*1773 ANTENNA_c397_A
*1774 ANTENNA_c397_X
*1775 ANTENNA_c398_A
*1776 ANTENNA_c398_B
*1777 ANTENNA_c399_A
*1778 ANTENNA_c399_C
*1779 ANTENNA_c400_B
*1780 ANTENNA_c400_X
*1781 ANTENNA_c401_B
*1782 ANTENNA_c402_A
*1783 ANTENNA_c404_A
*1784 ANTENNA_c404_X
*1785 ANTENNA_c405_A
*1786 ANTENNA_c406_B
*1787 ANTENNA_c406_C
*1788 ANTENNA_c406_X
*1789 ANTENNA_c407_A1
*1790 ANTENNA_c407_A2
*1791 ANTENNA_c407_C1
*1792 ANTENNA_c408_A
*1793 ANTENNA_c408_B
*1794 ANTENNA_c409_X
*1795 ANTENNA_c410_B
*1796 ANTENNA_c410_X
*1797 ANTENNA_c411_B
*1798 ANTENNA_c412_C_N
*1799 ANTENNA_c413_A
*1800 ANTENNA_c415_CLK
*1801 ANTENNA_c415_Q
*1802 ANTENNA_c415_SCD
*1803 ANTENNA_c416_A1
*1804 ANTENNA_c416_C1
*1805 ANTENNA_c417_CLK_N
*1806 ANTENNA_c417_D
*1807 ANTENNA_c417_Q
*1808 ANTENNA_c417_Q_N
*1809 ANTENNA_c417_SET_B
*1810 ANTENNA_c418_A
*1811 ANTENNA_c418_X
*1812 ANTENNA_c419_B
*1813 ANTENNA_c419_C
*1814 ANTENNA_c420_A
*1815 ANTENNA_c420_C
*1816 ANTENNA_c421_X
*1817 ANTENNA_c422_A2
*1818 ANTENNA_c422_B1
*1819 ANTENNA_c422_C1
*1820 ANTENNA_c422_D1
*1821 ANTENNA_c422_X
*1822 ANTENNA_c424_A
*1823 ANTENNA_c424_B
*1824 ANTENNA_c424_X
*1825 ANTENNA_c425_A
*1826 ANTENNA_c425_B
*1827 ANTENNA_c425_C_N
*1828 ANTENNA_c425_D_N
*1829 ANTENNA_c425_X
*1830 ANTENNA_c426_C_N
*1831 ANTENNA_c426_D_N
*1832 ANTENNA_c426_X
*1833 ANTENNA_c427_A
*1834 ANTENNA_c427_B
*1835 ANTENNA_c427_C
*1836 ANTENNA_c427_X
*1837 ANTENNA_c428_A
*1838 ANTENNA_c429_A2
*1839 ANTENNA_c429_B1
*1840 ANTENNA_c429_C1
*1841 ANTENNA_c429_D1
*1842 ANTENNA_c430_B
*1843 ANTENNA_c430_C_N
*1844 ANTENNA_c430_D_N
*1845 ANTENNA_c430_X
*1846 ANTENNA_c431_A
*1847 ANTENNA_c431_C
*1848 ANTENNA_c431_X
*1849 ANTENNA_c432_A1
*1850 ANTENNA_c432_B1
*1851 ANTENNA_c432_C1
*1852 ANTENNA_c432_X
*1853 ANTENNA_c433_X
*1854 ANTENNA_c434_A2
*1855 ANTENNA_c434_S0
*1856 ANTENNA_c434_S1
*1857 ANTENNA_c434_X
*1858 ANTENNA_c435_A1
*1859 ANTENNA_c435_A2
*1860 ANTENNA_c435_A3
*1861 ANTENNA_c435_S0
*1862 ANTENNA_c436_A1