*SPEF "ieee 1481-1999"
*DESIGN "netlist_1"
*DATE "14:45:11 Friday August 16, 2024"
*VENDOR "The OpenROAD Project"
*PROGRAM "OpenROAD"
*VERSION "d423155d69de7f683a23f6916ead418a615ad4ad"
*DESIGN_FLOW "NAME_SCOPE LOCAL" "PIN_CAP NONE"
*DIVIDER /
*DELIMITER :
*BUS_DELIMITER []
*T_UNIT 1 NS
*C_UNIT 1 PF
*R_UNIT 1 OHM
*L_UNIT 1 HENRY

*NAME_MAP
*3 clk
*4 in0
*5 in1
*6 in10
*7 in11
*8 in12
*9 in13
*10 in14
*11 in15
*12 in16
*13 in17
*14 in18
*15 in19
*16 in2
*17 in20
*18 in21
*19 in22
*20 in23
*21 in24
*22 in25
*23 in26
*24 in27
*25 in28
*26 in29
*27 in3
*28 in30
*29 in31
*30 in32
*31 in33
*32 in34
*33 in35
*34 in36
*35 in37
*36 in38
*37 in39
*38 in4
*39 in40
*40 in41
*41 in42
*42 in43
*43 in44
*44 in45
*45 in46
*46 in47
*47 in48
*48 in49
*49 in5
*50 in50
*51 in51
*52 in52
*53 in53
*54 in54
*55 in55
*56 in56
*57 in57
*58 in58
*59 in59
*60 in6
*61 in60
*62 in61
*63 in62
*64 in63
*65 in64
*66 in65
*67 in66
*68 in67
*69 in68
*70 in69
*71 in7
*72 in70
*73 in71
*74 in72
*75 in73
*76 in74
*77 in75
*78 in76
*79 in77
*80 in78
*81 in79
*82 in8
*83 in80
*84 in81
*85 in82
*86 in83
*87 in84
*88 in85
*89 in86
*90 in87
*91 in88
*92 in89
*93 in9
*94 in90
*95 in91
*96 in92
*97 in93
*98 in94
*99 in95
*100 in96
*101 in97
*102 in98
*103 in99
*104 out0
*105 out1
*106 out10
*107 out11
*108 out12
*109 out13
*110 out14
*111 out15
*112 out16
*113 out17
*114 out18
*115 out19
*116 out2
*117 out20
*118 out21
*119 out22
*120 out23
*121 out24
*122 out25
*123 out26
*124 out27
*125 out28
*126 out29
*127 out3
*128 out30
*129 out31
*130 out32
*131 out33
*132 out34
*133 out35
*134 out36
*135 out37
*136 out38
*137 out39
*138 out4
*139 out40
*140 out41
*141 out42
*142 out43
*143 out44
*144 out45
*145 out46
*146 out47
*147 out48
*148 out49
*149 out5
*150 out50
*151 out51
*152 out52
*153 out53
*154 out54
*155 out55
*156 out56
*157 out57
*158 out58
*159 out59
*160 out6
*161 out60
*162 out61
*163 out62
*164 out63
*165 out64
*166 out65
*167 out66
*168 out67
*169 out68
*170 out69
*171 out7
*172 out70
*173 out71
*174 out72
*175 out73
*176 out74
*177 out75
*178 out76
*179 out77
*180 out78
*181 out79
*182 out8
*183 out80
*184 out81
*185 out82
*186 out83
*187 out84
*188 out85
*189 out86
*190 out87
*191 out88
*192 out89
*193 out9
*194 out90
*195 out91
*196 out92
*197 out93
*198 out94
*199 out95
*200 out96
*201 out97
*202 out98
*203 out99
*204 rst
*205 clknet_0_clk
*206 clknet_0_net105
*207 clknet_0_net107
*208 clknet_0_net109
*209 clknet_0_net203
*210 clknet_0_net205
*211 clknet_0_net216
*212 clknet_0_net246
*213 clknet_0_net250
*214 clknet_0_net302
*215 clknet_0_net310
*216 clknet_0_net316
*217 clknet_0_net318
*218 clknet_0_net319
*219 clknet_0_net341
*220 clknet_0_net342
*221 clknet_0_net343
*222 clknet_0_net347
*223 clknet_0_net348
*224 clknet_0_net349
*225 clknet_0_net352
*226 clknet_0_net353
*227 clknet_0_net357
*228 clknet_0_net358
*229 clknet_0_net366
*230 clknet_0_net367
*231 clknet_0_net370
*232 clknet_0_net372
*233 clknet_0_net375
*234 clknet_0_net377
*235 clknet_0_net380
*236 clknet_0_net403
*237 clknet_0_net407
*238 clknet_0_net429
*239 clknet_0_net443
*240 clknet_0_net444
*241 clknet_0_net446
*242 clknet_0_net447
*243 clknet_0_net451
*244 clknet_0_net455
*245 clknet_0_net456
*246 clknet_0_net457
*247 clknet_0_net458
*248 clknet_0_net463
*249 clknet_0_net469
*250 clknet_0_net481
*251 clknet_0_net489
*252 clknet_0_net492
*253 clknet_0_net495
*254 clknet_0_net499
*255 clknet_0_net502
*256 clknet_0_net509
*257 clknet_0_net521
*258 clknet_0_net523
*259 clknet_0_net527
*260 clknet_0_net528
*261 clknet_0_net643
*262 clknet_0_net644
*263 clknet_0_net656
*264 clknet_0_net657
*265 clknet_0_net658
*266 clknet_0_net673
*267 clknet_0_net674
*268 clknet_0_net675
*269 clknet_0_net693
*270 clknet_0_net694
*271 clknet_0_net695
*272 clknet_0_net713
*273 clknet_0_net714
*274 clknet_0_net715
*275 clknet_0_net732
*276 clknet_0_net733
*277 clknet_0_net734
*278 clknet_0_net868
*279 clknet_0_net877
*280 clknet_0_net882
*281 clknet_0_net887
*282 clknet_0_net907
*283 clknet_0_net912
*284 clknet_0_net913
*285 clknet_0_net921
*286 clknet_1_0__leaf_net105
*287 clknet_1_0__leaf_net107
*288 clknet_1_0__leaf_net109
*289 clknet_1_0__leaf_net203
*290 clknet_1_0__leaf_net205
*291 clknet_1_0__leaf_net216
*292 clknet_1_0__leaf_net246
*293 clknet_1_0__leaf_net250
*294 clknet_1_0__leaf_net302
*295 clknet_1_0__leaf_net310
*296 clknet_1_0__leaf_net316
*297 clknet_1_0__leaf_net318
*298 clknet_1_0__leaf_net319
*299 clknet_1_0__leaf_net341
*300 clknet_1_0__leaf_net342
*301 clknet_1_0__leaf_net343
*302 clknet_1_0__leaf_net347
*303 clknet_1_0__leaf_net348
*304 clknet_1_0__leaf_net349
*305 clknet_1_0__leaf_net352
*306 clknet_1_0__leaf_net353
*307 clknet_1_0__leaf_net357
*308 clknet_1_0__leaf_net358
*309 clknet_1_0__leaf_net366
*310 clknet_1_0__leaf_net367
*311 clknet_1_0__leaf_net370
*312 clknet_1_0__leaf_net372
*313 clknet_1_0__leaf_net375
*314 clknet_1_0__leaf_net377
*315 clknet_1_0__leaf_net380
*316 clknet_1_0__leaf_net403
*317 clknet_1_0__leaf_net407
*318 clknet_1_0__leaf_net429
*319 clknet_1_0__leaf_net443
*320 clknet_1_0__leaf_net444
*321 clknet_1_0__leaf_net446
*322 clknet_1_0__leaf_net447
*323 clknet_1_0__leaf_net451
*324 clknet_1_0__leaf_net455
*325 clknet_1_0__leaf_net456
*326 clknet_1_0__leaf_net457
*327 clknet_1_0__leaf_net458
*328 clknet_1_0__leaf_net463
*329 clknet_1_0__leaf_net469
*330 clknet_1_0__leaf_net481
*331 clknet_1_0__leaf_net489
*332 clknet_1_0__leaf_net492
*333 clknet_1_0__leaf_net495
*334 clknet_1_0__leaf_net499
*335 clknet_1_0__leaf_net502
*336 clknet_1_0__leaf_net509
*337 clknet_1_0__leaf_net521
*338 clknet_1_0__leaf_net523
*339 clknet_1_0__leaf_net527
*340 clknet_1_0__leaf_net528
*341 clknet_1_0__leaf_net643
*342 clknet_1_0__leaf_net644
*343 clknet_1_0__leaf_net656
*344 clknet_1_0__leaf_net657
*345 clknet_1_0__leaf_net658
*346 clknet_1_0__leaf_net673
*347 clknet_1_0__leaf_net674
*348 clknet_1_0__leaf_net675
*349 clknet_1_0__leaf_net693
*350 clknet_1_0__leaf_net694
*351 clknet_1_0__leaf_net695
*352 clknet_1_0__leaf_net713
*353 clknet_1_0__leaf_net714
*354 clknet_1_0__leaf_net715
*355 clknet_1_0__leaf_net732
*356 clknet_1_0__leaf_net733
*357 clknet_1_0__leaf_net734
*358 clknet_1_0__leaf_net868
*359 clknet_1_0__leaf_net877
*360 clknet_1_0__leaf_net882
*361 clknet_1_0__leaf_net887
*362 clknet_1_0__leaf_net907
*363 clknet_1_0__leaf_net912
*364 clknet_1_0__leaf_net913
*365 clknet_1_0__leaf_net921
*366 clknet_1_1__leaf_net105
*367 clknet_1_1__leaf_net107
*368 clknet_1_1__leaf_net109
*369 clknet_1_1__leaf_net203
*370 clknet_1_1__leaf_net205
*371 clknet_1_1__leaf_net216
*372 clknet_1_1__leaf_net246
*373 clknet_1_1__leaf_net250
*374 clknet_1_1__leaf_net302
*375 clknet_1_1__leaf_net310
*376 clknet_1_1__leaf_net316
*377 clknet_1_1__leaf_net318
*378 clknet_1_1__leaf_net319
*379 clknet_1_1__leaf_net341
*380 clknet_1_1__leaf_net342
*381 clknet_1_1__leaf_net343
*382 clknet_1_1__leaf_net347
*383 clknet_1_1__leaf_net348
*384 clknet_1_1__leaf_net349
*385 clknet_1_1__leaf_net352
*386 clknet_1_1__leaf_net353
*387 clknet_1_1__leaf_net357
*388 clknet_1_1__leaf_net358
*389 clknet_1_1__leaf_net366
*390 clknet_1_1__leaf_net367
*391 clknet_1_1__leaf_net370
*392 clknet_1_1__leaf_net372
*393 clknet_1_1__leaf_net375
*394 clknet_1_1__leaf_net377
*395 clknet_1_1__leaf_net380
*396 clknet_1_1__leaf_net403
*397 clknet_1_1__leaf_net407
*398 clknet_1_1__leaf_net429
*399 clknet_1_1__leaf_net443
*400 clknet_1_1__leaf_net444
*401 clknet_1_1__leaf_net446
*402 clknet_1_1__leaf_net447
*403 clknet_1_1__leaf_net451
*404 clknet_1_1__leaf_net455
*405 clknet_1_1__leaf_net456
*406 clknet_1_1__leaf_net457
*407 clknet_1_1__leaf_net458
*408 clknet_1_1__leaf_net463
*409 clknet_1_1__leaf_net469
*410 clknet_1_1__leaf_net481
*411 clknet_1_1__leaf_net489
*412 clknet_1_1__leaf_net492
*413 clknet_1_1__leaf_net495
*414 clknet_1_1__leaf_net499
*415 clknet_1_1__leaf_net502
*416 clknet_1_1__leaf_net509
*417 clknet_1_1__leaf_net521
*418 clknet_1_1__leaf_net523
*419 clknet_1_1__leaf_net527
*420 clknet_1_1__leaf_net528
*421 clknet_1_1__leaf_net643
*422 clknet_1_1__leaf_net644
*423 clknet_1_1__leaf_net656
*424 clknet_1_1__leaf_net657
*425 clknet_1_1__leaf_net658
*426 clknet_1_1__leaf_net673
*427 clknet_1_1__leaf_net674
*428 clknet_1_1__leaf_net675
*429 clknet_1_1__leaf_net693
*430 clknet_1_1__leaf_net694
*431 clknet_1_1__leaf_net695
*432 clknet_1_1__leaf_net713
*433 clknet_1_1__leaf_net714
*434 clknet_1_1__leaf_net715
*435 clknet_1_1__leaf_net732
*436 clknet_1_1__leaf_net733
*437 clknet_1_1__leaf_net734
*438 clknet_1_1__leaf_net868
*439 clknet_1_1__leaf_net877
*440 clknet_1_1__leaf_net882
*441 clknet_1_1__leaf_net887
*442 clknet_1_1__leaf_net907
*443 clknet_1_1__leaf_net912
*444 clknet_1_1__leaf_net913
*445 clknet_1_1__leaf_net921
*446 clknet_4_0_0_clk
*447 clknet_4_10_0_clk
*448 clknet_4_11_0_clk
*449 clknet_4_12_0_clk
*450 clknet_4_13_0_clk
*451 clknet_4_14_0_clk
*452 clknet_4_15_0_clk
*453 clknet_4_1_0_clk
*454 clknet_4_2_0_clk
*455 clknet_4_3_0_clk
*456 clknet_4_4_0_clk
*457 clknet_4_5_0_clk
*458 clknet_4_6_0_clk
*459 clknet_4_7_0_clk
*460 clknet_4_8_0_clk
*461 clknet_4_9_0_clk
*462 net0
*463 net1
*464 net10
*465 net100
*466 net1000
*467 net1001
*468 net1002
*469 net1003
*470 net1004
*471 net1005
*472 net1006
*473 net1007
*474 net1008
*475 net1009
*476 net101
*477 net1010
*478 net1011
*479 net1012
*480 net1013
*481 net1014
*482 net1015
*483 net1016
*484 net1017
*485 net1018
*486 net1019
*487 net102
*488 net1020
*489 net1021
*490 net1022
*491 net1023
*492 net1024
*493 net1025
*494 net1026
*495 net1027
*496 net1028
*497 net1029
*498 net103
*499 net1030
*500 net1031
*501 net1032
*502 net1033
*503 net1034
*504 net1035
*505 net1036
*506 net1037
*507 net1038
*508 net1039
*509 net104
*510 net1040
*511 net1041
*512 net1042
*513 net1043
*514 net1044
*515 net1045
*516 net1046
*517 net1047
*518 net1048
*519 net1049
*520 net105
*521 net1050
*522 net1051
*523 net1052
*524 net1053
*525 net1054
*526 net1055
*527 net1056
*528 net1057
*529 net1058
*530 net1059
*531 net106
*532 net1060
*533 net1061
*534 net1062
*535 net1063
*536 net1064
*537 net1065
*538 net1066
*539 net1067
*540 net1068
*541 net1069
*542 net107
*543 net1070
*544 net1071
*545 net1072
*546 net1073
*547 net1074
*548 net1075
*549 net1076
*550 net1077
*551 net1078
*552 net1079
*553 net108
*554 net1080
*555 net1081
*556 net1082
*557 net1083
*558 net1084
*559 net1085
*560 net1086
*561 net1087
*562 net1088
*563 net1089
*564 net109
*565 net1090
*566 net1091
*567 net1092
*568 net1093
*569 net1094
*570 net1095
*571 net1096
*572 net1097
*573 net1098
*574 net1099
*575 net11
*576 net110
*577 net1100
*578 net1101
*579 net1102
*580 net1103
*581 net1104
*582 net1105
*583 net1106
*584 net1107
*585 net1108
*586 net1109
*587 net111
*588 net1110
*589 net1111
*590 net1112
*591 net1113
*592 net1114
*593 net1115
*594 net1116
*595 net1117
*596 net1118
*597 net1119
*598 net112
*599 net1120
*600 net1121
*601 net1122
*602 net1123
*603 net1124
*604 net1125
*605 net1126
*606 net1127
*607 net1128
*608 net1129
*609 net113
*610 net1130
*611 net1131
*612 net1132
*613 net1133
*614 net1134
*615 net1135
*616 net1136
*617 net1137
*618 net1138
*619 net1139
*620 net114
*621 net1140
*622 net1141
*623 net1142
*624 net1143
*625 net1144
*626 net1145
*627 net1146
*628 net1147
*629 net1148
*630 net1149
*631 net115
*632 net1150
*633 net1151
*634 net1152
*635 net1153
*636 net1154
*637 net1155
*638 net1156
*639 net1157
*640 net1158
*641 net1159
*642 net116
*643 net1160
*644 net1161
*645 net1162
*646 net1163
*647 net1164
*648 net1165
*649 net1166
*650 net1167
*651 net1168
*652 net1169
*653 net117
*654 net1170
*655 net1171
*656 net1172
*657 net1173
*658 net1174
*659 net1175
*660 net1176
*661 net1177
*662 net118
*663 net119
*664 net12
*665 net120
*666 net121
*667 net122
*668 net123
*669 net124
*670 net125
*671 net126
*672 net127
*673 net128
*674 net129
*675 net13
*676 net130
*677 net131
*678 net132
*679 net133
*680 net134
*681 net135
*682 net136
*683 net137
*684 net138
*685 net139
*686 net14
*687 net140
*688 net141
*689 net142
*690 net143
*691 net144
*692 net145
*693 net146
*694 net147
*695 net148
*696 net149
*697 net15
*698 net150
*699 net151
*700 net152
*701 net153
*702 net154
*703 net155
*704 net156
*705 net157
*706 net158
*707 net159
*708 net16
*709 net160
*710 net161
*711 net162
*712 net163
*713 net164
*714 net165
*715 net166
*716 net167
*717 net168
*718 net169
*719 net17
*720 net170
*721 net171
*722 net172
*723 net173
*724 net174
*725 net175
*726 net176
*727 net177
*728 net178
*729 net179
*730 net18
*731 net180
*732 net181
*733 net182
*734 net183
*735 net184
*736 net185
*737 net186
*738 net187
*739 net188
*740 net189
*741 net19
*742 net190
*743 net191
*744 net192
*745 net193
*746 net194
*747 net195
*748 net196
*749 net197
*750 net198
*751 net199
*752 net2
*753 net20
*754 net200
*755 net201
*756 net202
*757 net203
*758 net204
*759 net205
*760 net206
*761 net207
*762 net208
*763 net209
*764 net21
*765 net210
*766 net211
*767 net212
*768 net213
*769 net214
*770 net215
*771 net216
*772 net217
*773 net218
*774 net219
*775 net22
*776 net220
*777 net221
*778 net222
*779 net223
*780 net224
*781 net225
*782 net226
*783 net227
*784 net228
*785 net229
*786 net23
*787 net230
*788 net231
*789 net232
*790 net233
*791 net234
*792 net235
*793 net236
*794 net237
*795 net238
*796 net239
*797 net24
*798 net240
*799 net241
*800 net242
*801 net243
*802 net244
*803 net245
*804 net246
*805 net247
*806 net248
*807 net249
*808 net25
*809 net250
*810 net251
*811 net252
*812 net253
*813 net254
*814 net255
*815 net256
*816 net257
*817 net258
*818 net259
*819 net26
*820 net260
*821 net261
*822 net262
*823 net263
*824 net264
*825 net265
*826 net266
*827 net267
*828 net268
*829 net269
*830 net27
*831 net270
*832 net271
*833 net272
*834 net273
*835 net274
*836 net275
*837 net276
*838 net277
*839 net278
*840 net279
*841 net28
*842 net280
*843 net281
*844 net282
*845 net283
*846 net284
*847 net285
*848 net286
*849 net287
*850 net288
*851 net289
*852 net29
*853 net290
*854 net291
*855 net292
*856 net293
*857 net294
*858 net295
*859 net296
*860 net297
*861 net298
*862 net299
*863 net3
*864 net30
*865 net300
*866 net301
*867 net302
*868 net303
*869 net304
*870 net305
*871 net306
*872 net307
*873 net308
*874 net309
*875 net31
*876 net310
*877 net311
*878 net312
*879 net313
*880 net314
*881 net315
*882 net316
*883 net317
*884 net318
*885 net319
*886 net32
*887 net320
*888 net321
*889 net322
*890 net323
*891 net324
*892 net325
*893 net326
*894 net327
*895 net328
*896 net329
*897 net33
*898 net330
*899 net331
*900 net332
*901 net333
*902 net334
*903 net335
*904 net336
*905 net337
*906 net338
*907 net339
*908 net34
*909 net340
*910 net341
*911 net342
*912 net343
*913 net344
*914 net345
*915 net346
*916 net347
*917 net348
*918 net349
*919 net35
*920 net350
*921 net351
*922 net352
*923 net353
*924 net354
*925 net355
*926 net356
*927 net357
*928 net358
*929 net359
*930 net36
*931 net360
*932 net361
*933 net362
*934 net363
*935 net364
*936 net365
*937 net366
*938 net367
*939 net368
*940 net369
*941 net37
*942 net370
*943 net371
*944 net372
*945 net373
*946 net374
*947 net375
*948 net376
*949 net377
*950 net378
*951 net379
*952 net38
*953 net380
*954 net381
*955 net382
*956 net383
*957 net384
*958 net385
*959 net386
*960 net387
*961 net388
*962 net389
*963 net39
*964 net390
*965 net391
*966 net392
*967 net393
*968 net394
*969 net395
*970 net396
*971 net397
*972 net398
*973 net399
*974 net4
*975 net40
*976 net400
*977 net401
*978 net402
*979 net403
*980 net404
*981 net405
*982 net406
*983 net407
*984 net408
*985 net409
*986 net41
*987 net410
*988 net411
*989 net412
*990 net413
*991 net414
*992 net415
*993 net416
*994 net417
*995 net418
*996 net419
*997 net42
*998 net420
*999 net421
*1000 net422
*1001 net423
*1002 net424
*1003 net425
*1004 net426
*1005 net427
*1006 net428
*1007 net429
*1008 net43
*1009 net430
*1010 net431
*1011 net432
*1012 net433
*1013 net434
*1014 net435
*1015 net436
*1016 net437
*1017 net438
*1018 net439
*1019 net44
*1020 net440
*1021 net441
*1022 net442
*1023 net443
*1024 net444
*1025 net445
*1026 net446
*1027 net447
*1028 net448
*1029 net449
*1030 net45
*1031 net450
*1032 net451
*1033 net452
*1034 net453
*1035 net454
*1036 net455
*1037 net456
*1038 net457
*1039 net458
*1040 net459
*1041 net46
*1042 net460
*1043 net461
*1044 net462
*1045 net463
*1046 net464
*1047 net465
*1048 net466
*1049 net467
*1050 net468
*1051 net469
*1052 net47
*1053 net470
*1054 net471
*1055 net472
*1056 net473
*1057 net474
*1058 net475
*1059 net476
*1060 net477
*1061 net478
*1062 net479
*1063 net48
*1064 net480
*1065 net481
*1066 net482
*1067 net483
*1068 net484
*1069 net485
*1070 net486
*1071 net487
*1072 net488
*1073 net489
*1074 net49
*1075 net490
*1076 net491
*1077 net492
*1078 net493
*1079 net494
*1080 net495
*1081 net496
*1082 net497
*1083 net498
*1084 net499
*1085 net5
*1086 net50
*1087 net500
*1088 net501
*1089 net502
*1090 net503
*1091 net504
*1092 net505
*1093 net506
*1094 net507
*1095 net508
*1096 net509
*1097 net51
*1098 net510
*1099 net511
*1100 net512
*1101 net513
*1102 net514
*1103 net515
*1104 net516
*1105 net517
*1106 net518
*1107 net519
*1108 net52
*1109 net520
*1110 net521
*1111 net522
*1112 net523
*1113 net524
*1114 net525
*1115 net526
*1116 net527
*1117 net528
*1118 net529
*1119 net53
*1120 net530
*1121 net531
*1122 net532
*1123 net533
*1124 net534
*1125 net535
*1126 net536
*1127 net537
*1128 net538
*1129 net539
*1130 net54
*1131 net540
*1132 net541
*1133 net542
*1134 net543
*1135 net544
*1136 net545
*1137 net546
*1138 net547
*1139 net548
*1140 net549
*1141 net55
*1142 net550
*1143 net551
*1144 net552
*1145 net553
*1146 net554
*1147 net555
*1148 net556
*1149 net557
*1150 net558
*1151 net559
*1152 net56
*1153 net560
*1154 net561
*1155 net562
*1156 net563
*1157 net564
*1158 net565
*1159 net566
*1160 net567
*1161 net568
*1162 net569
*1163 net57
*1164 net570
*1165 net571
*1166 net572
*1167 net573
*1168 net574
*1169 net575
*1170 net576
*1171 net577
*1172 net578
*1173 net579
*1174 net58
*1175 net580
*1176 net581
*1177 net582
*1178 net583
*1179 net584
*1180 net585
*1181 net586
*1182 net587
*1183 net588
*1184 net589
*1185 net59
*1186 net590
*1187 net591
*1188 net592
*1189 net593
*1190 net594
*1191 net595
*1192 net596
*1193 net597
*1194 net598
*1195 net599
*1196 net6
*1197 net60
*1198 net600
*1199 net601
*1200 net602
*1201 net603
*1202 net604
*1203 net605
*1204 net606
*1205 net607
*1206 net608
*1207 net609
*1208 net61
*1209 net610
*1210 net611
*1211 net612
*1212 net613
*1213 net614
*1214 net615
*1215 net616
*1216 net617
*1217 net618
*1218 net619
*1219 net62
*1220 net620
*1221 net621
*1222 net622
*1223 net623
*1224 net624
*1225 net625
*1226 net626
*1227 net627
*1228 net628
*1229 net629
*1230 net63
*1231 net630
*1232 net631
*1233 net632
*1234 net633
*1235 net634
*1236 net635
*1237 net636
*1238 net637
*1239 net638
*1240 net639
*1241 net64
*1242 net640
*1243 net641
*1244 net642
*1245 net643
*1246 net644
*1247 net645
*1248 net646
*1249 net647
*1250 net648
*1251 net649
*1252 net65
*1253 net650
*1254 net651
*1255 net652
*1256 net653
*1257 net654
*1258 net655
*1259 net656
*1260 net657
*1261 net658
*1262 net659
*1263 net66
*1264 net660
*1265 net661
*1266 net662
*1267 net663
*1268 net664
*1269 net665
*1270 net666
*1271 net667
*1272 net668
*1273 net669
*1274 net67
*1275 net670
*1276 net671
*1277 net672
*1278 net673
*1279 net674
*1280 net675
*1281 net676
*1282 net677
*1283 net678
*1284 net679
*1285 net68
*1286 net680
*1287 net681
*1288 net682
*1289 net683
*1290 net684
*1291 net685
*1292 net686
*1293 net687
*1294 net688
*1295 net689
*1296 net69
*1297 net690
*1298 net691
*1299 net692
*1300 net693
*1301 net694
*1302 net695
*1303 net696
*1304 net697
*1305 net698
*1306 net699
*1307 net7
*1308 net70
*1309 net700
*1310 net701
*1311 net702
*1312 net703
*1313 net704
*1314 net705
*1315 net706
*1316 net707
*1317 net708
*1318 net709
*1319 net71
*1320 net710
*1321 net711
*1322 net712
*1323 net713
*1324 net714
*1325 net715
*1326 net716
*1327 net717
*1328 net718
*1329 net719
*1330 net72
*1331 net720
*1332 net721
*1333 net722
*1334 net723
*1335 net724
*1336 net725
*1337 net726
*1338 net727
*1339 net728
*1340 net729
*1341 net73
*1342 net730
*1343 net731
*1344 net732
*1345 net733
*1346 net734
*1347 net735
*1348 net736
*1349 net737
*1350 net738
*1351 net739
*1352 net74
*1353 net740
*1354 net741
*1355 net742
*1356 net743
*1357 net744
*1358 net745
*1359 net746
*1360 net747
*1361 net748
*1362 net749
*1363 net75
*1364 net750
*1365 net751
*1366 net752
*1367 net753
*1368 net754
*1369 net755
*1370 net756
*1371 net757
*1372 net758
*1373 net759
*1374 net76
*1375 net760
*1376 net761
*1377 net762
*1378 net763
*1379 net764
*1380 net765
*1381 net766
*1382 net767
*1383 net768
*1384 net769
*1385 net77
*1386 net770
*1387 net771
*1388 net772
*1389 net773
*1390 net774
*1391 net775
*1392 net776
*1393 net777
*1394 net778
*1395 net779
*1396 net78
*1397 net780
*1398 net781
*1399 net782
*1400 net783
*1401 net784
*1402 net785
*1403 net786
*1404 net787
*1405 net788
*1406 net789
*1407 net79
*1408 net790
*1409 net791
*1410 net792
*1411 net793
*1412 net794
*1413 net795
*1414 net796
*1415 net797
*1416 net798
*1417 net799
*1418 net8
*1419 net80
*1420 net800
*1421 net801
*1422 net802
*1423 net803
*1424 net804
*1425 net805
*1426 net806
*1427 net807
*1428 net808
*1429 net809
*1430 net81
*1431 net810
*1432 net811
*1433 net812
*1434 net813
*1435 net814
*1436 net815
*1437 net816
*1438 net817
*1439 net818
*1440 net819
*1441 net82
*1442 net820
*1443 net821
*1444 net822
*1445 net823
*1446 net824
*1447 net825
*1448 net826
*1449 net827
*1450 net828
*1451 net829
*1452 net83
*1453 net830
*1454 net831
*1455 net832
*1456 net833
*1457 net834
*1458 net835
*1459 net836
*1460 net837
*1461 net838
*1462 net839
*1463 net84
*1464 net840
*1465 net841
*1466 net842
*1467 net843
*1468 net844
*1469 net845
*1470 net846
*1471 net847
*1472 net848
*1473 net849
*1474 net85
*1475 net850
*1476 net851
*1477 net852
*1478 net853
*1479 net854
*1480 net855
*1481 net856
*1482 net857
*1483 net858
*1484 net859
*1485 net86
*1486 net860
*1487 net861
*1488 net862
*1489 net863
*1490 net864
*1491 net865
*1492 net866
*1493 net867
*1494 net868
*1495 net869
*1496 net87
*1497 net870
*1498 net871
*1499 net872
*1500 net873
*1501 net874
*1502 net875
*1503 net876
*1504 net877
*1505 net878
*1506 net879
*1507 net88
*1508 net880
*1509 net881
*1510 net882
*1511 net883
*1512 net884
*1513 net885
*1514 net886
*1515 net887
*1516 net888
*1517 net889
*1518 net89
*1519 net890
*1520 net891
*1521 net892
*1522 net893
*1523 net894
*1524 net895
*1525 net896
*1526 net897
*1527 net898
*1528 net899
*1529 net9
*1530 net90
*1531 net900
*1532 net901
*1533 net902
*1534 net903
*1535 net904
*1536 net905
*1537 net906
*1538 net907
*1539 net908
*1540 net909
*1541 net91
*1542 net910
*1543 net911
*1544 net912
*1545 net913
*1546 net914
*1547 net915
*1548 net916
*1549 net917
*1550 net918
*1551 net919
*1552 net92
*1553 net920
*1554 net921
*1555 net922
*1556 net923
*1557 net924
*1558 net925
*1559 net926
*1560 net927
*1561 net928
*1562 net929
*1563 net93
*1564 net930
*1565 net931
*1566 net932
*1567 net933
*1568 net934
*1569 net935
*1570 net936
*1571 net937
*1572 net938
*1573 net939
*1574 net94
*1575 net940
*1576 net941
*1577 net942
*1578 net943
*1579 net944
*1580 net945
*1581 net946
*1582 net947
*1583 net948
*1584 net949
*1585 net95
*1586 net950
*1587 net951
*1588 net952
*1589 net953
*1590 net954
*1591 net955
*1592 net956
*1593 net957
*1594 net958
*1595 net959
*1596 net96
*1597 net960
*1598 net961
*1599 net962
*1600 net963
*1601 net964
*1602 net965
*1603 net966
*1604 net967
*1605 net968
*1606 net969
*1607 net97
*1608 net970
*1609 net971
*1610 net972
*1611 net973
*1612 net974
*1613 net975
*1614 net976
*1615 net977
*1616 net978
*1617 net979
*1618 net98
*1619 net980
*1620 net981
*1621 net982
*1622 net983
*1623 net984
*1624 net985
*1625 net986
*1626 net987
*1627 net988
*1628 net989
*1629 net99
*1630 net990
*1631 net991
*1632 net992
*1633 net993
*1634 net994
*1635 net995
*1636 net996
*1637 net997
*1638 net998
*1639 net999
*1640 ANTENNA_1
*1641 ANTENNA_2
*1642 ANTENNA_3
*1643 ANTENNA_4
*1644 ANTENNA_5
*1645 ANTENNA_c100_A1
*1646 ANTENNA_c100_A3
*1647 ANTENNA_c100_S1
*1648 ANTENNA_c101_A2
*1649 ANTENNA_c101_S0
*1650 ANTENNA_c101_S1
*1651 ANTENNA_c102_A0
*1652 ANTENNA_c102_A1
*1653 ANTENNA_c102_A2
*1654 ANTENNA_c102_X
*1655 ANTENNA_c103_A0
*1656 ANTENNA_c103_A2
*1657 ANTENNA_c103_S0
*1658 ANTENNA_c103_X
*1659 ANTENNA_c104_A1
*1660 ANTENNA_c104_S0
*1661 ANTENNA_c105_A1
*1662 ANTENNA_c105_A3
*1663 ANTENNA_c105_S0
*1664 ANTENNA_c105_S1
*1665 ANTENNA_c105_X
*1666 ANTENNA_c106_A1
*1667 ANTENNA_c106_A2
*1668 ANTENNA_c106_A3
*1669 ANTENNA_c106_S0
*1670 ANTENNA_c106_S1
*1671 ANTENNA_c107_A0
*1672 ANTENNA_c107_A2
*1673 ANTENNA_c107_S0
*1674 ANTENNA_c107_X
*1675 ANTENNA_c108_A1
*1676 ANTENNA_c108_A3
*1677 ANTENNA_c108_S0
*1678 ANTENNA_c108_S1
*1679 ANTENNA_c109_A1
*1680 ANTENNA_c109_A3
*1681 ANTENNA_c109_S1
*1682 ANTENNA_c109_X
*1683 ANTENNA_c110_A2
*1684 ANTENNA_c110_A3
*1685 ANTENNA_c110_S1
*1686 ANTENNA_c111_A1
*1687 ANTENNA_c111_A2
*1688 ANTENNA_c111_B1
*1689 ANTENNA_c111_D1
*1690 ANTENNA_c112_D1
*1691 ANTENNA_c113_A2
*1692 ANTENNA_c113_D1
*1693 ANTENNA_c114_C1
*1694 ANTENNA_c115_A1
*1695 ANTENNA_c115_A3
*1696 ANTENNA_c115_S0
*1697 ANTENNA_c115_S1
*1698 ANTENNA_c116_B1
*1699 ANTENNA_c116_D1
*1700 ANTENNA_c117_A3
*1701 ANTENNA_c117_S1
*1702 ANTENNA_c118_A0
*1703 ANTENNA_c118_S0
*1704 ANTENNA_c119_A1
*1705 ANTENNA_c119_B1
*1706 ANTENNA_c119_C1
*1707 ANTENNA_c119_D1
*1708 ANTENNA_c120_B1
*1709 ANTENNA_c120_C1
*1710 ANTENNA_c120_D1
*1711 ANTENNA_c121_B1
*1712 ANTENNA_c122_A1
*1713 ANTENNA_c122_A2
*1714 ANTENNA_c122_D1
*1715 ANTENNA_c124_A0
*1716 ANTENNA_c124_A3
*1717 ANTENNA_c124_S0
*1718 ANTENNA_c124_S1
*1719 ANTENNA_c126_A2
*1720 ANTENNA_c129_D1
*1721 ANTENNA_c131_A3
*1722 ANTENNA_c132_A1
*1723 ANTENNA_c132_A2
*1724 ANTENNA_c132_B1
*1725 ANTENNA_c132_C1
*1726 ANTENNA_c132_D1
*1727 ANTENNA_c132_X
*1728 ANTENNA_c133_A1
*1729 ANTENNA_c133_A2
*1730 ANTENNA_c133_B1
*1731 ANTENNA_c133_C1
*1732 ANTENNA_c133_D1
*1733 ANTENNA_c134_A
*1734 ANTENNA_c134_B
*1735 ANTENNA_c134_C_N
*1736 ANTENNA_c134_D_N
*1737 ANTENNA_c134_X
*1738 ANTENNA_c135_A1
*1739 ANTENNA_c135_A2
*1740 ANTENNA_c135_B1
*1741 ANTENNA_c135_C1
*1742 ANTENNA_c135_D1
*1743 ANTENNA_c136_A1
*1744 ANTENNA_c136_B1
*1745 ANTENNA_c136_C1
*1746 ANTENNA_c136_D1
*1747 ANTENNA_c137_A
*1748 ANTENNA_c137_B
*1749 ANTENNA_c137_C_N
*1750 ANTENNA_c137_D_N
*1751 ANTENNA_c137_X
*1752 ANTENNA_c138_A1
*1753 ANTENNA_c138_A2
*1754 ANTENNA_c138_B1
*1755 ANTENNA_c138_C1
*1756 ANTENNA_c138_X
*1757 ANTENNA_c139_A1
*1758 ANTENNA_c139_B1
*1759 ANTENNA_c139_D1
*1760 ANTENNA_c139_X
*1761 ANTENNA_c140_A1
*1762 ANTENNA_c140_A2
*1763 ANTENNA_c140_C1
*1764 ANTENNA_c140_D1
*1765 ANTENNA_c140_X
*1766 ANTENNA_c141_A1
*1767 ANTENNA_c141_A2
*1768 ANTENNA_c141_B1
*1769 ANTENNA_c141_D1
*1770 ANTENNA_c142_A1
*1771 ANTENNA_c142_A2
*1772 ANTENNA_c142_A3
*1773 ANTENNA_c142_X
*1774 ANTENNA_c143_A2
*1775 ANTENNA_c143_C1
*1776 ANTENNA_c144_A2
*1777 ANTENNA_c144_A3
*1778 ANTENNA_c144_S0
*1779 ANTENNA_c145_A0
*1780 ANTENNA_c145_A1
*1781 ANTENNA_c145_A3
*1782 ANTENNA_c145_S0
*1783 ANTENNA_c145_S1
*1784 ANTENNA_c146_B1
*1785 ANTENNA_c146_X
*1786 ANTENNA_c147_A1
*1787 ANTENNA_c147_A3
*1788 ANTENNA_c147_S0
*1789 ANTENNA_c147_X
*1790 ANTENNA_c148_A1
*1791 ANTENNA_c148_X
*1792 ANTENNA_c149_A1
*1793 ANTENNA_c149_D1
*1794 ANTENNA_c149_X
*1795 ANTENNA_c150_A0
*1796 ANTENNA_c150_A1
*1797 ANTENNA_c150_A2
*1798 ANTENNA_c150_A3
*1799 ANTENNA_c150_S1
*1800 ANTENNA_c150_X
*1801 ANTENNA_c151_A1
*1802 ANTENNA_c151_A2
*1803 ANTENNA_c151_D1
*1804 ANTENNA_c151_X
*1805 ANTENNA_c152_A0
*1806 ANTENNA_c152_A1
*1807 ANTENNA_c152_A2
*1808 ANTENNA_c152_S1
*1809 ANTENNA_c153_A0
*1810 ANTENNA_c153_A2
*1811 ANTENNA_c153_S1
*1812 ANTENNA_c154_A1
*1813 ANTENNA_c154_A2
*1814 ANTENNA_c154_B1
*1815 ANTENNA_c154_C1
*1816 ANTENNA_c154_D1
*1817 ANTENNA_c155_A0
*1818 ANTENNA_c155_A2
*1819 ANTENNA_c155_A3
*1820 ANTENNA_c155_S0
*1821 ANTENNA_c155_S1
*1822 ANTENNA_c155_X
*1823 ANTENNA_c156_A2
*1824 ANTENNA_c156_B1
*1825 ANTENNA_c156_C1
*1826 ANTENNA_c156_D1
*1827 ANTENNA_c156_X
*1828 ANTENNA_c157_A0
*1829 ANTENNA_c157_A1
*1830 ANTENNA_c157_A2
*1831 ANTENNA_c157_A3
*1832 ANTENNA_c157_S0
*1833 ANTENNA_c157_S1
*1834 ANTENNA_c157_X
*1835 ANTENNA_c158_B1
*1836 ANTENNA_c158_C1
*1837 ANTENNA_c158_D1
*1838 ANTENNA_c159_A1
*1839 ANTENNA_c159_A2
*1840 ANTENNA_c159_B1
*1841 ANTENNA_c159_C1
*1842 ANTENNA_c159_D1
*1843 ANTENNA_c159_X
*1844 ANTENNA_c160_A1
*1845 ANTENNA_c160_A2
*1846 ANTENNA_c160_B1
*1847 ANTENNA_c160_C1
*1848 ANTENNA_c160_D1
*1849 ANTENNA_c160_X
*1850 ANTENNA_c161_A1
*1851 ANTENNA_c161_A2
*1852 ANTENNA_c161_C1
*1853 ANTENNA_c161_D1
*1854 ANTENNA_c161_X
*1855 ANTENNA_c162_A1
*1856 ANTENNA_c162_A2
*1857 ANTENNA_c162_B1
*1858 ANTENNA_c162_C1
*1859 ANTENNA_c162_X
*1860 ANTENNA_c163_A0
*1861 ANTENNA_c163_A1
*1862 ANTENNA_c163_A2
*1863 ANTENNA_c163_A3
*1864 ANTENNA_c163_S0
*1865 ANTENNA_c163_S1
*1866 ANTENNA_c164_A0
*1867 ANTENNA_c164_A1
*1868 ANTENNA_c164_A2
*1869 ANTENNA_c164_A3
*1870 ANTENNA_c164_S0
*1871 ANTENNA_c164_S1
*1872 ANTENNA_c164_X
*1873 ANTENNA_c165_A0
*1874 ANTENNA_c165_A1
*1875 ANTENNA_c165_A2
*1876 ANTENNA_c165_A3
*1877 ANTENNA_c165_S0
*1878 ANTENNA_c165_S1
*1879 ANTENNA_c166_A1
*1880 ANTENNA_c166_B1
*1881 ANTENNA_c166_C1
*1882 ANTENNA_c166_D1
*1883 ANTENNA_c166_X
*1884 ANTENNA_c167_A1
*1885 ANTENNA_c167_A2
*1886 ANTENNA_c167_B1
*1887 ANTENNA_c167_C1
*1888 ANTENNA_c167_D1
*1889 ANTENNA_c168_A0
*1890 ANTENNA_c168_A1
*1891 ANTENNA_c168_A2
*1892 ANTENNA_c168_A3
*1893 ANTENNA_c168_S0
*1894 ANTENNA_c169_A0
*1895 ANTENNA_c169_A2
*1896 ANTENNA_c169_S0
*1897 ANTENNA_c169_S1
*1898 ANTENNA_c169_X
*1899 ANTENNA_c170_A1
*1900 ANTENNA_c170_A2
*1901 ANTENNA_c170_A3
*1902 ANTENNA_c170_S0
*1903 ANTENNA_c170_S1
*1904 ANTENNA_c171_A0
*1905 ANTENNA_c171_A1
*1906 ANTENNA_c171_A2
*1907 ANTENNA_c171_S0
*1908 ANTENNA_c171_S1
*1909 ANTENNA_c172_A0
*1910 ANTENNA_c172_A2
*1911 ANTENNA_c172_A3
*1912 ANTENNA_c173_A0
*1913 ANTENNA_c173_A1
*1914 ANTENNA_c173_A3
*1915 ANTENNA_c173_S0
*1916 ANTENNA_c174_A3
*1917 ANTENNA_c174_S1
*1918 ANTENNA_c175_A1
*1919 ANTENNA_c175_A2
*1920 ANTENNA_c175_S0