*SPEF "ieee 1481-1999"
*DESIGN "netlist_0"
*DATE "12:02:49 Thursday August 08, 2024"
*VENDOR "The OpenROAD Project"
*PROGRAM "OpenROAD"
*VERSION "d423155d69de7f683a23f6916ead418a615ad4ad"
*DESIGN_FLOW "NAME_SCOPE LOCAL" "PIN_CAP NONE"
*DIVIDER /
*DELIMITER :
*BUS_DELIMITER []
*T_UNIT 1 NS
*C_UNIT 1 PF
*R_UNIT 1 OHM
*L_UNIT 1 HENRY

*NAME_MAP
*3 clk
*4 in0
*5 in1
*6 in10
*7 in11
*8 in12
*9 in13
*10 in14
*11 in15
*12 in16
*13 in17
*14 in18
*15 in19
*16 in2
*17 in20
*18 in21
*19 in22
*20 in23
*21 in24
*22 in25
*23 in26
*24 in27
*25 in28
*26 in29
*27 in3
*28 in30
*29 in31
*30 in32
*31 in33
*32 in34
*33 in35
*34 in36
*35 in37
*36 in38
*37 in39
*38 in4
*39 in40
*40 in41
*41 in42
*42 in43
*43 in44
*44 in45
*45 in46
*46 in47
*47 in48
*48 in49
*49 in5
*50 in50
*51 in51
*52 in52
*53 in53
*54 in54
*55 in55
*56 in56
*57 in57
*58 in58
*59 in59
*60 in6
*61 in60
*62 in61
*63 in7
*64 in8
*65 in9
*66 out0
*67 out1
*68 out10
*69 out11
*70 out12
*71 out13
*72 out14
*73 out15
*74 out16
*75 out17
*76 out18
*77 out19
*78 out2
*79 out20
*80 out21
*81 out22
*82 out23
*83 out24
*84 out25
*85 out26
*86 out27
*87 out28
*88 out29
*89 out3
*90 out30
*91 out31
*92 out32
*93 out33
*94 out34
*95 out35
*96 out36
*97 out37
*98 out38
*99 out39
*100 out4
*101 out40
*102 out41
*103 out42
*104 out43
*105 out44
*106 out45
*107 out46
*108 out47
*109 out48
*110 out49
*111 out5
*112 out50
*113 out51
*114 out52
*115 out53
*116 out54
*117 out55
*118 out56
*119 out57
*120 out58
*121 out59
*122 out6
*123 out60
*124 out61
*125 out7
*126 out8
*127 out9
*128 rst
*129 clknet_0_clk
*130 clknet_0_net1001
*131 clknet_0_net1006
*132 clknet_0_net118
*133 clknet_0_net119
*134 clknet_0_net125
*135 clknet_0_net127
*136 clknet_0_net129
*137 clknet_0_net130
*138 clknet_0_net131
*139 clknet_0_net140
*140 clknet_0_net142
*141 clknet_0_net143
*142 clknet_0_net147
*143 clknet_0_net153
*144 clknet_0_net158
*145 clknet_0_net159
*146 clknet_0_net160
*147 clknet_0_net164
*148 clknet_0_net165
*149 clknet_0_net223
*150 clknet_0_net225
*151 clknet_0_net228
*152 clknet_0_net233
*153 clknet_0_net243
*154 clknet_0_net254
*155 clknet_0_net271
*156 clknet_0_net286
*157 clknet_0_net350
*158 clknet_0_net353
*159 clknet_0_net354
*160 clknet_0_net355
*161 clknet_0_net357
*162 clknet_0_net358
*163 clknet_0_net379
*164 clknet_0_net380
*165 clknet_0_net381
*166 clknet_0_net389
*167 clknet_0_net404
*168 clknet_0_net405
*169 clknet_0_net407
*170 clknet_0_net409
*171 clknet_0_net451
*172 clknet_0_net452
*173 clknet_0_net455
*174 clknet_0_net47
*175 clknet_0_net476
*176 clknet_0_net477
*177 clknet_0_net491
*178 clknet_0_net500
*179 clknet_0_net501
*180 clknet_0_net51
*181 clknet_0_net579
*182 clknet_0_net585
*183 clknet_0_net588
*184 clknet_0_net600
*185 clknet_0_net605
*186 clknet_0_net616
*187 clknet_0_net662
*188 clknet_0_net748
*189 clknet_0_net749
*190 clknet_0_net750
*191 clknet_0_net792
*192 clknet_0_net793
*193 clknet_0_net828
*194 clknet_0_net845
*195 clknet_0_net846
*196 clknet_0_net847
*197 clknet_0_net866
*198 clknet_0_net867
*199 clknet_0_net884
*200 clknet_0_net885
*201 clknet_0_net886
*202 clknet_0_net961
*203 clknet_0_net965
*204 clknet_0_net966
*205 clknet_0_net971
*206 clknet_0_net973
*207 clknet_0_net984
*208 clknet_0_net991
*209 clknet_0_net995
*210 clknet_1_0__leaf_net1001
*211 clknet_1_0__leaf_net1006
*212 clknet_1_0__leaf_net118
*213 clknet_1_0__leaf_net119
*214 clknet_1_0__leaf_net125
*215 clknet_1_0__leaf_net127
*216 clknet_1_0__leaf_net129
*217 clknet_1_0__leaf_net130
*218 clknet_1_0__leaf_net131
*219 clknet_1_0__leaf_net140
*220 clknet_1_0__leaf_net142
*221 clknet_1_0__leaf_net143
*222 clknet_1_0__leaf_net147
*223 clknet_1_0__leaf_net153
*224 clknet_1_0__leaf_net158
*225 clknet_1_0__leaf_net159
*226 clknet_1_0__leaf_net160
*227 clknet_1_0__leaf_net164
*228 clknet_1_0__leaf_net165
*229 clknet_1_0__leaf_net223
*230 clknet_1_0__leaf_net225
*231 clknet_1_0__leaf_net228
*232 clknet_1_0__leaf_net233
*233 clknet_1_0__leaf_net243
*234 clknet_1_0__leaf_net254
*235 clknet_1_0__leaf_net271
*236 clknet_1_0__leaf_net286
*237 clknet_1_0__leaf_net350
*238 clknet_1_0__leaf_net353
*239 clknet_1_0__leaf_net354
*240 clknet_1_0__leaf_net355
*241 clknet_1_0__leaf_net357
*242 clknet_1_0__leaf_net358
*243 clknet_1_0__leaf_net379
*244 clknet_1_0__leaf_net380
*245 clknet_1_0__leaf_net381
*246 clknet_1_0__leaf_net389
*247 clknet_1_0__leaf_net404
*248 clknet_1_0__leaf_net405
*249 clknet_1_0__leaf_net407
*250 clknet_1_0__leaf_net409
*251 clknet_1_0__leaf_net451
*252 clknet_1_0__leaf_net452
*253 clknet_1_0__leaf_net455
*254 clknet_1_0__leaf_net47
*255 clknet_1_0__leaf_net476
*256 clknet_1_0__leaf_net477
*257 clknet_1_0__leaf_net491
*258 clknet_1_0__leaf_net500
*259 clknet_1_0__leaf_net501
*260 clknet_1_0__leaf_net51
*261 clknet_1_0__leaf_net579
*262 clknet_1_0__leaf_net585
*263 clknet_1_0__leaf_net588
*264 clknet_1_0__leaf_net600
*265 clknet_1_0__leaf_net605
*266 clknet_1_0__leaf_net616
*267 clknet_1_0__leaf_net662
*268 clknet_1_0__leaf_net748
*269 clknet_1_0__leaf_net749
*270 clknet_1_0__leaf_net750
*271 clknet_1_0__leaf_net792
*272 clknet_1_0__leaf_net793
*273 clknet_1_0__leaf_net828
*274 clknet_1_0__leaf_net845
*275 clknet_1_0__leaf_net846
*276 clknet_1_0__leaf_net847
*277 clknet_1_0__leaf_net866
*278 clknet_1_0__leaf_net867
*279 clknet_1_0__leaf_net884
*280 clknet_1_0__leaf_net885
*281 clknet_1_0__leaf_net886
*282 clknet_1_0__leaf_net961
*283 clknet_1_0__leaf_net965
*284 clknet_1_0__leaf_net966
*285 clknet_1_0__leaf_net971
*286 clknet_1_0__leaf_net973
*287 clknet_1_0__leaf_net984
*288 clknet_1_0__leaf_net991
*289 clknet_1_0__leaf_net995
*290 clknet_1_1__leaf_net1001
*291 clknet_1_1__leaf_net1006
*292 clknet_1_1__leaf_net118
*293 clknet_1_1__leaf_net119
*294 clknet_1_1__leaf_net125
*295 clknet_1_1__leaf_net127
*296 clknet_1_1__leaf_net129
*297 clknet_1_1__leaf_net130
*298 clknet_1_1__leaf_net131
*299 clknet_1_1__leaf_net140
*300 clknet_1_1__leaf_net142
*301 clknet_1_1__leaf_net143
*302 clknet_1_1__leaf_net147
*303 clknet_1_1__leaf_net153
*304 clknet_1_1__leaf_net158
*305 clknet_1_1__leaf_net159
*306 clknet_1_1__leaf_net160
*307 clknet_1_1__leaf_net164
*308 clknet_1_1__leaf_net165
*309 clknet_1_1__leaf_net223
*310 clknet_1_1__leaf_net225
*311 clknet_1_1__leaf_net228
*312 clknet_1_1__leaf_net233
*313 clknet_1_1__leaf_net243
*314 clknet_1_1__leaf_net254
*315 clknet_1_1__leaf_net271
*316 clknet_1_1__leaf_net286
*317 clknet_1_1__leaf_net350
*318 clknet_1_1__leaf_net353
*319 clknet_1_1__leaf_net354
*320 clknet_1_1__leaf_net355
*321 clknet_1_1__leaf_net357
*322 clknet_1_1__leaf_net358
*323 clknet_1_1__leaf_net379
*324 clknet_1_1__leaf_net380
*325 clknet_1_1__leaf_net381
*326 clknet_1_1__leaf_net389
*327 clknet_1_1__leaf_net404
*328 clknet_1_1__leaf_net405
*329 clknet_1_1__leaf_net407
*330 clknet_1_1__leaf_net409
*331 clknet_1_1__leaf_net451
*332 clknet_1_1__leaf_net452
*333 clknet_1_1__leaf_net455
*334 clknet_1_1__leaf_net47
*335 clknet_1_1__leaf_net476
*336 clknet_1_1__leaf_net477
*337 clknet_1_1__leaf_net491
*338 clknet_1_1__leaf_net500
*339 clknet_1_1__leaf_net501
*340 clknet_1_1__leaf_net51
*341 clknet_1_1__leaf_net579
*342 clknet_1_1__leaf_net585
*343 clknet_1_1__leaf_net588
*344 clknet_1_1__leaf_net600
*345 clknet_1_1__leaf_net605
*346 clknet_1_1__leaf_net616
*347 clknet_1_1__leaf_net662
*348 clknet_1_1__leaf_net748
*349 clknet_1_1__leaf_net749
*350 clknet_1_1__leaf_net750
*351 clknet_1_1__leaf_net792
*352 clknet_1_1__leaf_net793
*353 clknet_1_1__leaf_net828
*354 clknet_1_1__leaf_net845
*355 clknet_1_1__leaf_net846
*356 clknet_1_1__leaf_net847
*357 clknet_1_1__leaf_net866
*358 clknet_1_1__leaf_net867
*359 clknet_1_1__leaf_net884
*360 clknet_1_1__leaf_net885
*361 clknet_1_1__leaf_net886
*362 clknet_1_1__leaf_net961
*363 clknet_1_1__leaf_net965
*364 clknet_1_1__leaf_net966
*365 clknet_1_1__leaf_net971
*366 clknet_1_1__leaf_net973
*367 clknet_1_1__leaf_net984
*368 clknet_1_1__leaf_net991
*369 clknet_1_1__leaf_net995
*370 clknet_4_0_0_clk
*371 clknet_4_10_0_clk
*372 clknet_4_11_0_clk
*373 clknet_4_12_0_clk
*374 clknet_4_13_0_clk
*375 clknet_4_14_0_clk
*376 clknet_4_15_0_clk
*377 clknet_4_1_0_clk
*378 clknet_4_2_0_clk
*379 clknet_4_3_0_clk
*380 clknet_4_4_0_clk
*381 clknet_4_5_0_clk
*382 clknet_4_6_0_clk
*383 clknet_4_7_0_clk
*384 clknet_4_8_0_clk
*385 clknet_4_9_0_clk
*386 net0
*387 net1
*388 net10
*389 net100
*390 net1000
*391 net1001
*392 net1002
*393 net1003
*394 net1004
*395 net1005
*396 net1006
*397 net1007
*398 net1008
*399 net1009
*400 net101
*401 net1010
*402 net1011
*403 net1012
*404 net1013
*405 net1014
*406 net1015
*407 net1016
*408 net1017
*409 net1018
*410 net1019
*411 net102
*412 net1020
*413 net1021
*414 net1022
*415 net1023
*416 net1024
*417 net1025
*418 net1026
*419 net1027
*420 net1028
*421 net1029
*422 net103
*423 net1030
*424 net1031
*425 net1032
*426 net1033
*427 net1034
*428 net1035
*429 net1036
*430 net1037
*431 net1038
*432 net1039
*433 net104
*434 net1040
*435 net1041
*436 net1042
*437 net1043
*438 net1044
*439 net1045
*440 net1046
*441 net1047
*442 net1048
*443 net1049
*444 net105
*445 net1050
*446 net1051
*447 net1052
*448 net1053
*449 net1054
*450 net1055
*451 net1056
*452 net1057
*453 net1058
*454 net1059
*455 net106
*456 net1060
*457 net1061
*458 net1062
*459 net1063
*460 net1064
*461 net1065
*462 net1066
*463 net1067
*464 net1068
*465 net1069
*466 net107
*467 net1070
*468 net1071
*469 net1072
*470 net1073
*471 net1074
*472 net1075
*473 net1076
*474 net1077
*475 net1078
*476 net1079
*477 net108
*478 net1080
*479 net1081
*480 net1082
*481 net1083
*482 net1084
*483 net1085
*484 net1086
*485 net1087
*486 net1088
*487 net1089
*488 net109
*489 net1090
*490 net1091
*491 net1092
*492 net1093
*493 net11
*494 net110
*495 net111
*496 net112
*497 net113
*498 net114
*499 net115
*500 net116
*501 net117
*502 net118
*503 net119
*504 net12
*505 net120
*506 net121
*507 net122
*508 net123
*509 net124
*510 net125
*511 net126
*512 net127
*513 net128
*514 net129
*515 net13
*516 net130
*517 net131
*518 net132
*519 net133
*520 net134
*521 net135
*522 net136
*523 net137
*524 net138
*525 net139
*526 net14
*527 net140
*528 net141
*529 net142
*530 net143
*531 net144
*532 net145
*533 net146
*534 net147
*535 net148
*536 net149
*537 net15
*538 net150
*539 net151
*540 net152
*541 net153
*542 net154
*543 net155
*544 net156
*545 net157
*546 net158
*547 net159
*548 net16
*549 net160
*550 net161
*551 net162
*552 net163
*553 net164
*554 net165
*555 net166
*556 net167
*557 net168
*558 net169
*559 net17
*560 net170
*561 net171
*562 net172
*563 net173
*564 net174
*565 net175
*566 net176
*567 net177
*568 net178
*569 net179
*570 net18
*571 net180
*572 net181
*573 net182
*574 net183
*575 net184
*576 net185
*577 net186
*578 net187
*579 net188
*580 net189
*581 net19
*582 net190
*583 net191
*584 net192
*585 net193
*586 net194
*587 net195
*588 net196
*589 net197
*590 net198
*591 net199
*592 net2
*593 net20
*594 net200
*595 net201
*596 net202
*597 net203
*598 net204
*599 net205
*600 net206
*601 net207
*602 net208
*603 net209
*604 net21
*605 net210
*606 net211
*607 net212
*608 net213
*609 net214
*610 net215
*611 net216
*612 net217
*613 net218
*614 net219
*615 net22
*616 net220
*617 net221
*618 net222
*619 net223
*620 net224
*621 net225
*622 net226
*623 net227
*624 net228
*625 net229
*626 net23
*627 net230
*628 net231
*629 net232
*630 net233
*631 net234
*632 net235
*633 net236
*634 net237
*635 net238
*636 net239
*637 net24
*638 net240
*639 net241
*640 net242
*641 net243
*642 net244
*643 net245
*644 net246
*645 net247
*646 net248
*647 net249
*648 net25
*649 net250
*650 net251
*651 net252
*652 net253
*653 net254
*654 net255
*655 net256
*656 net257
*657 net258
*658 net259
*659 net26
*660 net260
*661 net261
*662 net262
*663 net263
*664 net264
*665 net265
*666 net266
*667 net267
*668 net268
*669 net269
*670 net27
*671 net270
*672 net271
*673 net272
*674 net273
*675 net274
*676 net275
*677 net276
*678 net277
*679 net278
*680 net279
*681 net28
*682 net280
*683 net281
*684 net282
*685 net283
*686 net284
*687 net285
*688 net286
*689 net287
*690 net288
*691 net289
*692 net29
*693 net290
*694 net291
*695 net292
*696 net293
*697 net294
*698 net295
*699 net296
*700 net297
*701 net298
*702 net299
*703 net3
*704 net30
*705 net300
*706 net301
*707 net302
*708 net303
*709 net304
*710 net305
*711 net306
*712 net307
*713 net308
*714 net309
*715 net31
*716 net310
*717 net311
*718 net312
*719 net313
*720 net314
*721 net315
*722 net316
*723 net317
*724 net318
*725 net319
*726 net32
*727 net320
*728 net321
*729 net322
*730 net323
*731 net324
*732 net325
*733 net326
*734 net327
*735 net328
*736 net329
*737 net33
*738 net330
*739 net331
*740 net332
*741 net333
*742 net334
*743 net335
*744 net336
*745 net337
*746 net338
*747 net339
*748 net34
*749 net340
*750 net341
*751 net342
*752 net343
*753 net344
*754 net345
*755 net346
*756 net347
*757 net348
*758 net349
*759 net35
*760 net350
*761 net351
*762 net352
*763 net353
*764 net354
*765 net355
*766 net356
*767 net357
*768 net358
*769 net359
*770 net36
*771 net360
*772 net361
*773 net362
*774 net363
*775 net364
*776 net365
*777 net366
*778 net367
*779 net368
*780 net369
*781 net37
*782 net370
*783 net371
*784 net372
*785 net373
*786 net374
*787 net375
*788 net376
*789 net377
*790 net378
*791 net379
*792 net38
*793 net380
*794 net381
*795 net382
*796 net383
*797 net384
*798 net385
*799 net386
*800 net387
*801 net388
*802 net389
*803 net39
*804 net390
*805 net391
*806 net392
*807 net393
*808 net394
*809 net395
*810 net396
*811 net397
*812 net398
*813 net399
*814 net4
*815 net40
*816 net400
*817 net401
*818 net402
*819 net403
*820 net404
*821 net405
*822 net406
*823 net407
*824 net408
*825 net409
*826 net41
*827 net410
*828 net411
*829 net412
*830 net413
*831 net414
*832 net415
*833 net416
*834 net417
*835 net418
*836 net419
*837 net42
*838 net420
*839 net421
*840 net422
*841 net423
*842 net424
*843 net425
*844 net426
*845 net427
*846 net428
*847 net429
*848 net43
*849 net430
*850 net431
*851 net432
*852 net433
*853 net434
*854 net435
*855 net436
*856 net437
*857 net438
*858 net439
*859 net44
*860 net440
*861 net441
*862 net442
*863 net443
*864 net444
*865 net445
*866 net446
*867 net447
*868 net448
*869 net449
*870 net45
*871 net450
*872 net451
*873 net452
*874 net453
*875 net454
*876 net455
*877 net456
*878 net457
*879 net458
*880 net459
*881 net46
*882 net460
*883 net461
*884 net462
*885 net463
*886 net464
*887 net465
*888 net466
*889 net467
*890 net468
*891 net469
*892 net47
*893 net470
*894 net471
*895 net472
*896 net473
*897 net474
*898 net475
*899 net476
*900 net477
*901 net478
*902 net479
*903 net48
*904 net480
*905 net481
*906 net482
*907 net483
*908 net484
*909 net485
*910 net486
*911 net487
*912 net488
*913 net489
*914 net49
*915 net490
*916 net491
*917 net492
*918 net493
*919 net494
*920 net495
*921 net496
*922 net497
*923 net498
*924 net499
*925 net5
*926 net50
*927 net500
*928 net501
*929 net502
*930 net503
*931 net504
*932 net505
*933 net506
*934 net507
*935 net508
*936 net509
*937 net51
*938 net510
*939 net511
*940 net512
*941 net513
*942 net514
*943 net515
*944 net516
*945 net517
*946 net518
*947 net519
*948 net52
*949 net520
*950 net521
*951 net522
*952 net523
*953 net524
*954 net525
*955 net526
*956 net527
*957 net528
*958 net529
*959 net53
*960 net530
*961 net531
*962 net532
*963 net533
*964 net534
*965 net535
*966 net536
*967 net537
*968 net538
*969 net539
*970 net54
*971 net540
*972 net541
*973 net542
*974 net543
*975 net544
*976 net545
*977 net546
*978 net547
*979 net548
*980 net549
*981 net55
*982 net550
*983 net551
*984 net552
*985 net553
*986 net554
*987 net555
*988 net556
*989 net557
*990 net558
*991 net559
*992 net56
*993 net560
*994 net561
*995 net562
*996 net563
*997 net564
*998 net565
*999 net566
*1000 net567
*1001 net568
*1002 net569
*1003 net57
*1004 net570
*1005 net571
*1006 net572
*1007 net573
*1008 net574
*1009 net575
*1010 net576
*1011 net577
*1012 net578
*1013 net579
*1014 net58
*1015 net580
*1016 net581
*1017 net582
*1018 net583
*1019 net584
*1020 net585
*1021 net586
*1022 net587
*1023 net588
*1024 net589
*1025 net59
*1026 net590
*1027 net591
*1028 net592
*1029 net593
*1030 net594
*1031 net595
*1032 net596
*1033 net597
*1034 net598
*1035 net599
*1036 net6
*1037 net60
*1038 net600
*1039 net601
*1040 net602
*1041 net603
*1042 net604
*1043 net605
*1044 net606
*1045 net607
*1046 net608
*1047 net609
*1048 net61
*1049 net610
*1050 net611
*1051 net612
*1052 net613
*1053 net614
*1054 net615
*1055 net616
*1056 net617
*1057 net618
*1058 net619
*1059 net62
*1060 net620
*1061 net621
*1062 net622
*1063 net623
*1064 net624
*1065 net625
*1066 net626
*1067 net627
*1068 net628
*1069 net629
*1070 net63
*1071 net630
*1072 net631
*1073 net632
*1074 net633
*1075 net634
*1076 net635
*1077 net636
*1078 net637
*1079 net638
*1080 net639
*1081 net64
*1082 net640
*1083 net641
*1084 net642
*1085 net643
*1086 net644
*1087 net645
*1088 net646
*1089 net647
*1090 net648
*1091 net649
*1092 net65
*1093 net650
*1094 net651
*1095 net652
*1096 net653
*1097 net654
*1098 net655
*1099 net656
*1100 net657
*1101 net658
*1102 net659
*1103 net66
*1104 net660
*1105 net661
*1106 net662
*1107 net663
*1108 net664
*1109 net665
*1110 net666
*1111 net667
*1112 net668
*1113 net669
*1114 net67
*1115 net670
*1116 net671
*1117 net672
*1118 net673
*1119 net674
*1120 net675
*1121 net676
*1122 net677
*1123 net678
*1124 net679
*1125 net68
*1126 net680
*1127 net681
*1128 net682
*1129 net683
*1130 net684
*1131 net685
*1132 net686
*1133 net687
*1134 net688
*1135 net689
*1136 net69
*1137 net690
*1138 net691
*1139 net692
*1140 net693
*1141 net694
*1142 net695
*1143 net696
*1144 net697
*1145 net698
*1146 net699
*1147 net7
*1148 net70
*1149 net700
*1150 net701
*1151 net702
*1152 net703
*1153 net704
*1154 net705
*1155 net706
*1156 net707
*1157 net708
*1158 net709
*1159 net71
*1160 net710
*1161 net711
*1162 net712
*1163 net713
*1164 net714
*1165 net715
*1166 net716
*1167 net717
*1168 net718
*1169 net719
*1170 net72
*1171 net720
*1172 net721
*1173 net722
*1174 net723
*1175 net724
*1176 net725
*1177 net726
*1178 net727
*1179 net728
*1180 net729
*1181 net73
*1182 net730
*1183 net731
*1184 net732
*1185 net733
*1186 net734
*1187 net735
*1188 net736
*1189 net737
*1190 net738
*1191 net739
*1192 net74
*1193 net740
*1194 net741
*1195 net742
*1196 net743
*1197 net744
*1198 net745
*1199 net746
*1200 net747
*1201 net748
*1202 net749
*1203 net75
*1204 net750
*1205 net751
*1206 net752
*1207 net753
*1208 net754
*1209 net755
*1210 net756
*1211 net757
*1212 net758
*1213 net759
*1214 net76
*1215 net760
*1216 net761
*1217 net762
*1218 net763
*1219 net764
*1220 net765
*1221 net766
*1222 net767
*1223 net768
*1224 net769
*1225 net77
*1226 net770
*1227 net771
*1228 net772
*1229 net773
*1230 net774
*1231 net775
*1232 net776
*1233 net777
*1234 net778
*1235 net779
*1236 net78
*1237 net780
*1238 net781
*1239 net782
*1240 net783
*1241 net784
*1242 net785
*1243 net786
*1244 net787
*1245 net788
*1246 net789
*1247 net79
*1248 net790
*1249 net791
*1250 net792
*1251 net793
*1252 net794
*1253 net795
*1254 net796
*1255 net797
*1256 net798
*1257 net799
*1258 net8
*1259 net80
*1260 net800
*1261 net801
*1262 net802
*1263 net803
*1264 net804
*1265 net805
*1266 net806
*1267 net807
*1268 net808
*1269 net809
*1270 net81
*1271 net810
*1272 net811
*1273 net812
*1274 net813
*1275 net814
*1276 net815
*1277 net816
*1278 net817
*1279 net818
*1280 net819
*1281 net82
*1282 net820
*1283 net821
*1284 net822
*1285 net823
*1286 net824
*1287 net825
*1288 net826
*1289 net827
*1290 net828
*1291 net829
*1292 net83
*1293 net830
*1294 net831
*1295 net832
*1296 net833
*1297 net834
*1298 net835
*1299 net836
*1300 net837
*1301 net838
*1302 net839
*1303 net84
*1304 net840
*1305 net841
*1306 net842
*1307 net843
*1308 net844
*1309 net845
*1310 net846
*1311 net847
*1312 net848
*1313 net849
*1314 net85
*1315 net850
*1316 net851
*1317 net852
*1318 net853
*1319 net854
*1320 net855
*1321 net856
*1322 net857
*1323 net858
*1324 net859
*1325 net86
*1326 net860
*1327 net861
*1328 net862
*1329 net863
*1330 net864
*1331 net865
*1332 net866
*1333 net867
*1334 net868
*1335 net869
*1336 net87
*1337 net870
*1338 net871
*1339 net872
*1340 net873
*1341 net874
*1342 net875
*1343 net876
*1344 net877
*1345 net878
*1346 net879
*1347 net88
*1348 net880
*1349 net881
*1350 net882
*1351 net883
*1352 net884
*1353 net885
*1354 net886
*1355 net887
*1356 net888
*1357 net889
*1358 net89
*1359 net890
*1360 net891
*1361 net892
*1362 net893
*1363 net894
*1364 net895
*1365 net896
*1366 net897
*1367 net898
*1368 net899
*1369 net9
*1370 net90
*1371 net900
*1372 net901
*1373 net902
*1374 net903
*1375 net904
*1376 net905
*1377 net906
*1378 net907
*1379 net908
*1380 net909
*1381 net91
*1382 net910
*1383 net911
*1384 net912
*1385 net913
*1386 net914
*1387 net915
*1388 net916
*1389 net917
*1390 net918
*1391 net919
*1392 net92
*1393 net920
*1394 net921
*1395 net922
*1396 net923
*1397 net924
*1398 net925
*1399 net926
*1400 net927
*1401 net928
*1402 net929
*1403 net93
*1404 net930
*1405 net931
*1406 net932
*1407 net933
*1408 net934
*1409 net935
*1410 net936
*1411 net937
*1412 net938
*1413 net939
*1414 net94
*1415 net940
*1416 net941
*1417 net942
*1418 net943
*1419 net944
*1420 net945
*1421 net946
*1422 net947
*1423 net948
*1424 net949
*1425 net95
*1426 net950
*1427 net951
*1428 net952
*1429 net953
*1430 net954
*1431 net955
*1432 net956
*1433 net957
*1434 net958
*1435 net959
*1436 net96
*1437 net960
*1438 net961
*1439 net962
*1440 net963
*1441 net964
*1442 net965
*1443 net966
*1444 net967
*1445 net968
*1446 net969
*1447 net97
*1448 net970
*1449 net971
*1450 net972
*1451 net973
*1452 net974
*1453 net975
*1454 net976
*1455 net977
*1456 net978
*1457 net979
*1458 net98
*1459 net980
*1460 net981
*1461 net982
*1462 net983
*1463 net984
*1464 net985
*1465 net986
*1466 net987
*1467 net988
*1468 net989
*1469 net99
*1470 net990
*1471 net991
*1472 net992
*1473 net993
*1474 net994
*1475 net995
*1476 net996
*1477 net997
*1478 net998
*1479 net999
*1480 ANTENNA_1
*1481 ANTENNA_2
*1482 ANTENNA_3
*1483 ANTENNA_4
*1484 ANTENNA_c100_A2
*1485 ANTENNA_c101_CLK
*1486 ANTENNA_c101_SCD
*1487 ANTENNA_c102_A1
*1488 ANTENNA_c102_S0
*1489 ANTENNA_c102_S1
*1490 ANTENNA_c106_A
*1491 ANTENNA_c109_A3
*1492 ANTENNA_c109_S1
*1493 ANTENNA_c111_A
*1494 ANTENNA_c118_CLK_N
*1495 ANTENNA_c118_RESET_B
*1496 ANTENNA_c119_B
*1497 ANTENNA_c124_CLK
*1498 ANTENNA_c126_CLK_N
*1499 ANTENNA_c127_CLK_N
*1500 ANTENNA_c129_S1
*1501 ANTENNA_c130_A3
*1502 ANTENNA_c131_CLK
*1503 ANTENNA_c132_A
*1504 ANTENNA_c132_B
*1505 ANTENNA_c133_A
*1506 ANTENNA_c133_B
*1507 ANTENNA_c135_A
*1508 ANTENNA_c135_B
*1509 ANTENNA_c136_A
*1510 ANTENNA_c136_Y
*1511 ANTENNA_c137_Y
*1512 ANTENNA_c138_A2
*1513 ANTENNA_c138_A3
*1514 ANTENNA_c138_X
*1515 ANTENNA_c139_B
*1516 ANTENNA_c139_Y
*1517 ANTENNA_c140_X
*1518 ANTENNA_c141_D
*1519 ANTENNA_c141_RESET_B
*1520 ANTENNA_c141_SCD
*1521 ANTENNA_c141_SCE
*1522 ANTENNA_c142_B
*1523 ANTENNA_c142_Y
*1524 ANTENNA_c144_D
*1525 ANTENNA_c144_RESET_B
*1526 ANTENNA_c144_SCE
*1527 ANTENNA_c145_A2
*1528 ANTENNA_c146_A2
*1529 ANTENNA_c146_A3
*1530 ANTENNA_c146_A4
*1531 ANTENNA_c146_B1
*1532 ANTENNA_c146_X
*1533 ANTENNA_c147_D
*1534 ANTENNA_c147_SCD
*1535 ANTENNA_c147_SCE
*1536 ANTENNA_c149_A4
*1537 ANTENNA_c149_B1
*1538 ANTENNA_c150_A1
*1539 ANTENNA_c150_A2
*1540 ANTENNA_c150_A3
*1541 ANTENNA_c150_B1
*1542 ANTENNA_c150_X
*1543 ANTENNA_c151_A1
*1544 ANTENNA_c151_B1_N
*1545 ANTENNA_c151_X
*1546 ANTENNA_c152_Q
*1547 ANTENNA_c152_Q_N
*1548 ANTENNA_c152_RESET_B
*1549 ANTENNA_c152_SCE
*1550 ANTENNA_c152_SET_B
*1551 ANTENNA_c153_A1
*1552 ANTENNA_c153_A2
*1553 ANTENNA_c153_A3
*1554 ANTENNA_c153_B1
*1555 ANTENNA_c154_B
*1556 ANTENNA_c156_A3
*1557 ANTENNA_c156_X
*1558 ANTENNA_c159_A2
*1559 ANTENNA_c159_B1_N
*1560 ANTENNA_c160_A3
*1561 ANTENNA_c162_A2
*1562 ANTENNA_c162_S1
*1563 ANTENNA_c163_A1
*1564 ANTENNA_c163_A2
*1565 ANTENNA_c163_B1_N
*1566 ANTENNA_c163_X
*1567 ANTENNA_c166_A2
*1568 ANTENNA_c166_A3
*1569 ANTENNA_c166_S0
*1570 ANTENNA_c166_S1
*1571 ANTENNA_c166_X
*1572 ANTENNA_c167_A1
*1573 ANTENNA_c167_A2
*1574 ANTENNA_c167_B1_N
*1575 ANTENNA_c167_X
*1576 ANTENNA_c168_A2
*1577 ANTENNA_c168_A3
*1578 ANTENNA_c168_A4
*1579 ANTENNA_c168_B1
*1580 ANTENNA_c169_B1_N
*1581 ANTENNA_c170_Q
*1582 ANTENNA_c170_RESET_B
*1583 ANTENNA_c170_SCE
*1584 ANTENNA_c171_A1
*1585 ANTENNA_c171_S0
*1586 ANTENNA_c172_A1
*1587 ANTENNA_c172_A2
*1588 ANTENNA_c172_S0
*1589 ANTENNA_c173_A1
*1590 ANTENNA_c173_A3
*1591 ANTENNA_c173_S0
*1592 ANTENNA_c174_X
*1593 ANTENNA_c175_A0
*1594 ANTENNA_c175_A1
*1595 ANTENNA_c175_A2
*1596 ANTENNA_c175_A3
*1597 ANTENNA_c176_A
*1598 ANTENNA_c177_B
*1599 ANTENNA_c178_A3
*1600 ANTENNA_c180_Y
*1601 ANTENNA_c181_CLK
*1602 ANTENNA_c181_RESET_B
*1603 ANTENNA_c181_SCD
*1604 ANTENNA_c181_SCE
*1605 ANTENNA_c182_A1
*1606 ANTENNA_c182_A2
*1607 ANTENNA_c184_X
*1608 ANTENNA_c187_A1
*1609 ANTENNA_c187_S1
*1610 ANTENNA_c193_A3
*1611 ANTENNA_c195_A0
*1612 ANTENNA_c196_A
*1613 ANTENNA_c196_X
*1614 ANTENNA_c197_A3
*1615 ANTENNA_c200_A2
*1616 ANTENNA_c200_B1_N
*1617 ANTENNA_c201_B1_N
*1618 ANTENNA_c202_X
*1619 ANTENNA_c204_A1
*1620 ANTENNA_c204_A2
*1621 ANTENNA_c209_A2
*1622 ANTENNA_c209_S1
*1623 ANTENNA_c211_X
*1624 ANTENNA_c212_A1
*1625 ANTENNA_c212_A2
*1626 ANTENNA_c212_A3
*1627 ANTENNA_c212_X
*1628 ANTENNA_c213_A0
*1629 ANTENNA_c213_A1
*1630 ANTENNA_c213_A2
*1631 ANTENNA_c213_A3
*1632 ANTENNA_c213_S1
*1633 ANTENNA_c214_A2
*1634 ANTENNA_c214_A4
*1635 ANTENNA_c214_B1
*1636 ANTENNA_c215_S0
*1637 ANTENNA_c215_S1
*1638 ANTENNA_c216_A1
*1639 ANTENNA_c216_B1
*1640 ANTENNA_c217_A1
*1641 ANTENNA_c217_A3
*1642 ANTENNA_c217_B1
*1643 ANTENNA_c218_A4
*1644 ANTENNA_c219_A1
*1645 ANTENNA_c219_A2
*1646 ANTENNA_c219_B1_N
*1647 ANTENNA_c219_X
*1648 ANTENNA_c220_B
*1649 ANTENNA_c222_X
*1650 ANTENNA_c223_A
*1651 ANTENNA_c225_A
*1652 ANTENNA_c225_B
*1653 ANTENNA_c226_A
*1654 ANTENNA_c226_B
*1655 ANTENNA_c227_A2
*1656 ANTENNA_c230_B
*1657 ANTENNA_c231_X
*1658 ANTENNA_c232_A3
*1659 ANTENNA_c232_S1
*1660 ANTENNA_c233_A0
*1661 ANTENNA_c233_A1
*1662 ANTENNA_c233_A3
*1663 ANTENNA_c233_S1
*1664 ANTENNA_c234_X
*1665 ANTENNA_c236_A0
*1666 ANTENNA_c236_A2
*1667 ANTENNA_c236_A3
*1668 ANTENNA_c239_A3
*1669 ANTENNA_c239_S1
*1670 ANTENNA_c241_CLK_N
*1671 ANTENNA_c241_RESET_B
*1672 ANTENNA_c241_SCD
*1673 ANTENNA_c241_SCE
*1674 ANTENNA_c244_A1
*1675 ANTENNA_c244_A2
*1676 ANTENNA_c244_B1_N
*1677 ANTENNA_c245_CLK
*1678 ANTENNA_c245_SCE
*1679 ANTENNA_c246_A2
*1680 ANTENNA_c246_A3
*1681 ANTENNA_c247_A
*1682 ANTENNA_c248_B1_N
*1683 ANTENNA_c250_A3
*1684 ANTENNA_c251_CLK_N
*1685 ANTENNA_c252_A3
*1686 ANTENNA_c255_A
*1687 ANTENNA_c257_A2
*1688 ANTENNA_c257_B1_N
*1689 ANTENNA_c263_A0
*1690 ANTENNA_c264_X
*1691 ANTENNA_c269_A
*1692 ANTENNA_c269_Y
*1693 ANTENNA_c270_A1
*1694 ANTENNA_c270_A2
*1695 ANTENNA_c270_B1_N
*1696 ANTENNA_c271_A2
*1697 ANTENNA_c272_CLK
*1698 ANTENNA_c272_D
*1699 ANTENNA_c272_RESET_B
*1700 ANTENNA_c273_A3
*1701 ANTENNA_c274_A1
*1702 ANTENNA_c274_A3
*1703 ANTENNA_c276_A1
*1704 ANTENNA_c277_A
*1705 ANTENNA_c277_X
*1706 ANTENNA_c278_X
*1707 ANTENNA_c279_A0
*1708 ANTENNA_c279_A1
*1709 ANTENNA_c279_S1
*1710 ANTENNA_c280_CLK_N
*1711 ANTENNA_c280_SCD
*1712 ANTENNA_c281_A3
*1713 ANTENNA_c282_CLK
*1714 ANTENNA_c282_Q
*1715 ANTENNA_c282_SCE
*1716 ANTENNA_c283_S1
*1717 ANTENNA_c284_S0
*1718 ANTENNA_c285_A0
*1719 ANTENNA_c285_S0
*1720 ANTENNA_c285_S1
*1721 ANTENNA_c289_A1
*1722 ANTENNA_c289_A2
*1723 ANTENNA_c289_B1_N
*1724 ANTENNA_c290_A2
*1725 ANTENNA_c290_A3
*1726 ANTENNA_c291_X
*1727 ANTENNA_c293_A3
*1728 ANTENNA_c295_A2
*1729 ANTENNA_c295_S1
*1730 ANTENNA_c297_A
*1731 ANTENNA_c297_X
*1732 ANTENNA_c298_B1_N
*1733 ANTENNA_c298_X
*1734 ANTENNA_c299_X
*1735 ANTENNA_c300_B1_N
*1736 ANTENNA_c301_X
*1737 ANTENNA_c302_A3
*1738 ANTENNA_c302_S0
*1739 ANTENNA_c303_CLK
*1740 ANTENNA_c303_Q
*1741 ANTENNA_c303_SCE
*1742 ANTENNA_c303_SET_B
*1743 ANTENNA_c304_A3
*1744 ANTENNA_c304_S1
*1745 ANTENNA_c305_B1_N
*1746 ANTENNA_c306_A2
*1747 ANTENNA_c306_A3
*1748 ANTENNA_c306_A4
*1749 ANTENNA_c307_A1
*1750 ANTENNA_c308_B
*1751 ANTENNA_c309_A1
*1752 ANTENNA_c310_A1
*1753 ANTENNA_c310_A2
*1754 ANTENNA_c311_A
*1755 ANTENNA_c314_B
*1756 ANTENNA_c314_Y
*1757 ANTENNA_c317_D
*1758 ANTENNA_c317_SET_B
*1759 ANTENNA_c318_A
*1760 ANTENNA_c319_A2
*1761 ANTENNA_c319_A3
*1762 ANTENNA_c319_S0
*1763 ANTENNA_c322_A2
*1764 ANTENNA_c322_B1
*1765 ANTENNA_c323_A3
*1766 ANTENNA_c325_Q
*1767 ANTENNA_c325_Q_N
*1768 ANTENNA_c326_B1
*1769 ANTENNA_c328_B1
*1770 ANTENNA_c329_S0
*1771 ANTENNA_c330_D
*1772 ANTENNA_c330_Q
*1773 ANTENNA_c330_SCD
*1774 ANTENNA_c331_CLK
*1775 ANTENNA_c331_D
*1776 ANTENNA_c331_SCD
*1777 ANTENNA_c332_A1
*1778 ANTENNA_c333_A2
*1779 ANTENNA_c333_B1_N
*1780 ANTENNA_c333_X
*1781 ANTENNA_c334_CLK
*1782 ANTENNA_c334_Q
*1783 ANTENNA_c334_SET_B
*1784 ANTENNA_c335_B1_N
*1785 ANTENNA_c336_A2
*1786 ANTENNA_c336_B1
*1787 ANTENNA_c337_A2
*1788 ANTENNA_c337_B1
*1789 ANTENNA_c339_A1
*1790 ANTENNA_c339_B1_N
*1791 ANTENNA_c340_X
*1792 ANTENNA_c341_A3
*1793 ANTENNA_c341_X
*1794 ANTENNA_c342_CLK
*1795 ANTENNA_c342_D
*1796 ANTENNA_c342_DE
*1797 ANTENNA_c342_Q
*1798 ANTENNA_c342_Q_N
*1799 ANTENNA_c342_SCD
*1800 ANTENNA_c343_A3
*1801 ANTENNA_c343_B1
*1802 ANTENNA_c344_A2
*1803 ANTENNA_c344_A3
*1804 ANTENNA_c345_A1
*1805 ANTENNA_c345_A3
*1806 ANTENNA_c345_S0
*1807 ANTENNA_c346_A2
*1808 ANTENNA_c346_A3
*1809 ANTENNA_c346_S1
*1810 ANTENNA_c347_CLK
*1811 ANTENNA_c347_D
*1812 ANTENNA_c347_Q
*1813 ANTENNA_c347_Q_N
*1814 ANTENNA_c347_RESET_B
*1815 ANTENNA_c347_SCD
*1816 ANTENNA_c348_A1
*1817 ANTENNA_c348_A2
*1818 ANTENNA_c348_S0
*1819 ANTENNA_c349_A2
*1820 ANTENNA_c350_A1
*1821 ANTENNA_c350_A4
*1822 ANTENNA_c353_A1
*1823 ANTENNA_c353_B1_N
*1824 ANTENNA_c354_B
*1825 ANTENNA_c355_A1
*1826 ANTENNA_c355_B1
*1827 ANTENNA_c357_A0
*1828 ANTENNA_c357_A2
*1829 ANTENNA_c357_A3
*1830 ANTENNA_c357_S1
*1831 ANTENNA_c359_A1
*1832 ANTENNA_c359_B1_N
*1833 ANTENNA_c360_A
*1834 ANTENNA_c361_A2
*1835 ANTENNA_c361_X
*1836 ANTENNA_c362_B1_N
*1837 ANTENNA_c363_A3
*1838 ANTENNA_c363_B1
*1839 ANTENNA_c364_A
*1840 ANTENNA_c366_A2
*1841 ANTENNA_c366_B1_N
*1842 ANTENNA_c366_X
*1843 ANTENNA_c367_A2
*1844 ANTENNA_c367_B1_N
*1845 ANTENNA_c368_B1_N
*1846 ANTENNA_c369_A2
*1847 ANTENNA_c369_B1_N
*1848 ANTENNA_c370_B1_N