*SPEF "ieee 1481-1999"
*DESIGN "netlist_1"
*DATE "20:24:27 Saturday August 17, 2024"
*VENDOR "The OpenROAD Project"
*PROGRAM "OpenROAD"
*VERSION "d423155d69de7f683a23f6916ead418a615ad4ad"
*DESIGN_FLOW "NAME_SCOPE LOCAL" "PIN_CAP NONE"
*DIVIDER /
*DELIMITER :
*BUS_DELIMITER []
*T_UNIT 1 NS
*C_UNIT 1 PF
*R_UNIT 1 OHM
*L_UNIT 1 HENRY

*NAME_MAP
*3 clk
*4 in0
*5 in1
*6 in10
*7 in11
*8 in12
*9 in13
*10 in14
*11 in15
*12 in16
*13 in17
*14 in18
*15 in19
*16 in2
*17 in20
*18 in21
*19 in22
*20 in23
*21 in24
*22 in3
*23 in4
*24 in5
*25 in6
*26 in7
*27 in8
*28 in9
*29 out0
*30 out1
*31 out10
*32 out11
*33 out12
*34 out13
*35 out14
*36 out15
*37 out16
*38 out17
*39 out18
*40 out19
*41 out2
*42 out20
*43 out21
*44 out22
*45 out23
*46 out24
*47 out3
*48 out4
*49 out5
*50 out6
*51 out7
*52 out8
*53 out9
*54 rst
*55 clknet_0_clk
*56 clknet_0_net103
*57 clknet_0_net108
*58 clknet_0_net112
*59 clknet_0_net134
*60 clknet_0_net139
*61 clknet_0_net142
*62 clknet_0_net143
*63 clknet_0_net146
*64 clknet_0_net147
*65 clknet_0_net148
*66 clknet_0_net154
*67 clknet_0_net174
*68 clknet_0_net176
*69 clknet_0_net187
*70 clknet_0_net202
*71 clknet_0_net204
*72 clknet_0_net205
*73 clknet_0_net233
*74 clknet_0_net234
*75 clknet_0_net239
*76 clknet_0_net250
*77 clknet_0_net262
*78 clknet_0_net264
*79 clknet_0_net265
*80 clknet_0_net267
*81 clknet_0_net268
*82 clknet_0_net269
*83 clknet_0_net272
*84 clknet_0_net274
*85 clknet_0_net279
*86 clknet_0_net280
*87 clknet_0_net287
*88 clknet_0_net292
*89 clknet_0_net293
*90 clknet_0_net294
*91 clknet_0_net303
*92 clknet_0_net372
*93 clknet_0_net398
*94 clknet_0_net400
*95 clknet_0_net401
*96 clknet_0_net421
*97 clknet_0_net435
*98 clknet_0_net443
*99 clknet_0_net448
*100 clknet_0_net451
*101 clknet_0_net521
*102 clknet_0_net535
*103 clknet_0_net757
*104 clknet_0_net758
*105 clknet_0_net759
*106 clknet_0_net819
*107 clknet_0_net827
*108 clknet_1_0__leaf_net103
*109 clknet_1_0__leaf_net108
*110 clknet_1_0__leaf_net112
*111 clknet_1_0__leaf_net134
*112 clknet_1_0__leaf_net139
*113 clknet_1_0__leaf_net142
*114 clknet_1_0__leaf_net143
*115 clknet_1_0__leaf_net146
*116 clknet_1_0__leaf_net147
*117 clknet_1_0__leaf_net148
*118 clknet_1_0__leaf_net154
*119 clknet_1_0__leaf_net174
*120 clknet_1_0__leaf_net176
*121 clknet_1_0__leaf_net187
*122 clknet_1_0__leaf_net202
*123 clknet_1_0__leaf_net204
*124 clknet_1_0__leaf_net205
*125 clknet_1_0__leaf_net233
*126 clknet_1_0__leaf_net234
*127 clknet_1_0__leaf_net239
*128 clknet_1_0__leaf_net250
*129 clknet_1_0__leaf_net262
*130 clknet_1_0__leaf_net264
*131 clknet_1_0__leaf_net265
*132 clknet_1_0__leaf_net267
*133 clknet_1_0__leaf_net268
*134 clknet_1_0__leaf_net269
*135 clknet_1_0__leaf_net272
*136 clknet_1_0__leaf_net274
*137 clknet_1_0__leaf_net279
*138 clknet_1_0__leaf_net280
*139 clknet_1_0__leaf_net287
*140 clknet_1_0__leaf_net292
*141 clknet_1_0__leaf_net293
*142 clknet_1_0__leaf_net294
*143 clknet_1_0__leaf_net303
*144 clknet_1_0__leaf_net372
*145 clknet_1_0__leaf_net398
*146 clknet_1_0__leaf_net400
*147 clknet_1_0__leaf_net401
*148 clknet_1_0__leaf_net421
*149 clknet_1_0__leaf_net435
*150 clknet_1_0__leaf_net443
*151 clknet_1_0__leaf_net448
*152 clknet_1_0__leaf_net451
*153 clknet_1_0__leaf_net521
*154 clknet_1_0__leaf_net535
*155 clknet_1_0__leaf_net757
*156 clknet_1_0__leaf_net758
*157 clknet_1_0__leaf_net759
*158 clknet_1_0__leaf_net819
*159 clknet_1_0__leaf_net827
*160 clknet_1_1__leaf_net103
*161 clknet_1_1__leaf_net108
*162 clknet_1_1__leaf_net112
*163 clknet_1_1__leaf_net134
*164 clknet_1_1__leaf_net139
*165 clknet_1_1__leaf_net142
*166 clknet_1_1__leaf_net143
*167 clknet_1_1__leaf_net146
*168 clknet_1_1__leaf_net147
*169 clknet_1_1__leaf_net148
*170 clknet_1_1__leaf_net154
*171 clknet_1_1__leaf_net174
*172 clknet_1_1__leaf_net176
*173 clknet_1_1__leaf_net187
*174 clknet_1_1__leaf_net202
*175 clknet_1_1__leaf_net204
*176 clknet_1_1__leaf_net205
*177 clknet_1_1__leaf_net233
*178 clknet_1_1__leaf_net234
*179 clknet_1_1__leaf_net239
*180 clknet_1_1__leaf_net250
*181 clknet_1_1__leaf_net262
*182 clknet_1_1__leaf_net264
*183 clknet_1_1__leaf_net265
*184 clknet_1_1__leaf_net267
*185 clknet_1_1__leaf_net268
*186 clknet_1_1__leaf_net269
*187 clknet_1_1__leaf_net272
*188 clknet_1_1__leaf_net274
*189 clknet_1_1__leaf_net279
*190 clknet_1_1__leaf_net280
*191 clknet_1_1__leaf_net287
*192 clknet_1_1__leaf_net292
*193 clknet_1_1__leaf_net293
*194 clknet_1_1__leaf_net294
*195 clknet_1_1__leaf_net303
*196 clknet_1_1__leaf_net372
*197 clknet_1_1__leaf_net398
*198 clknet_1_1__leaf_net400
*199 clknet_1_1__leaf_net401
*200 clknet_1_1__leaf_net421
*201 clknet_1_1__leaf_net435
*202 clknet_1_1__leaf_net443
*203 clknet_1_1__leaf_net448
*204 clknet_1_1__leaf_net451
*205 clknet_1_1__leaf_net521
*206 clknet_1_1__leaf_net535
*207 clknet_1_1__leaf_net757
*208 clknet_1_1__leaf_net758
*209 clknet_1_1__leaf_net759
*210 clknet_1_1__leaf_net819
*211 clknet_1_1__leaf_net827
*212 clknet_2_0__leaf_clk
*213 clknet_2_1__leaf_clk
*214 clknet_2_2__leaf_clk
*215 clknet_2_3__leaf_clk
*216 clknet_leaf_0_clk
*217 clknet_leaf_10_clk
*218 clknet_leaf_11_clk
*219 clknet_leaf_12_clk
*220 clknet_leaf_13_clk
*221 clknet_leaf_14_clk
*222 clknet_leaf_16_clk
*223 clknet_leaf_17_clk
*224 clknet_leaf_18_clk
*225 clknet_leaf_19_clk
*226 clknet_leaf_1_clk
*227 clknet_leaf_20_clk
*228 clknet_leaf_21_clk
*229 clknet_leaf_22_clk
*230 clknet_leaf_23_clk
*231 clknet_leaf_24_clk
*232 clknet_leaf_25_clk
*233 clknet_leaf_26_clk
*234 clknet_leaf_27_clk
*235 clknet_leaf_28_clk
*236 clknet_leaf_29_clk
*237 clknet_leaf_2_clk
*238 clknet_leaf_30_clk
*239 clknet_leaf_31_clk
*240 clknet_leaf_32_clk
*241 clknet_leaf_33_clk
*242 clknet_leaf_34_clk
*243 clknet_leaf_35_clk
*244 clknet_leaf_3_clk
*245 clknet_leaf_4_clk
*246 clknet_leaf_5_clk
*247 clknet_leaf_6_clk
*248 clknet_leaf_7_clk
*249 clknet_leaf_8_clk
*250 clknet_leaf_9_clk
*251 net0
*252 net1
*253 net10
*254 net100
*255 net101
*256 net102
*257 net103
*258 net104
*259 net105
*260 net106
*261 net107
*262 net108
*263 net109
*264 net11
*265 net110
*266 net111
*267 net112
*268 net113
*269 net114
*270 net115
*271 net116
*272 net117
*273 net118
*274 net119
*275 net12
*276 net120
*277 net121
*278 net122
*279 net123
*280 net124
*281 net125
*282 net126
*283 net127
*284 net128
*285 net129
*286 net13
*287 net130
*288 net131
*289 net132
*290 net133
*291 net134
*292 net135
*293 net136
*294 net137
*295 net138
*296 net139
*297 net14
*298 net140
*299 net141
*300 net142
*301 net143
*302 net144
*303 net145
*304 net146
*305 net147
*306 net148
*307 net149
*308 net15
*309 net150
*310 net151
*311 net152
*312 net153
*313 net154
*314 net155
*315 net156
*316 net157
*317 net158
*318 net159
*319 net16
*320 net160
*321 net161
*322 net162
*323 net163
*324 net164
*325 net165
*326 net166
*327 net167
*328 net168
*329 net169
*330 net17
*331 net170
*332 net171
*333 net172
*334 net173
*335 net174
*336 net175
*337 net176
*338 net177
*339 net178
*340 net179
*341 net18
*342 net180
*343 net181
*344 net182
*345 net183
*346 net184
*347 net185
*348 net186
*349 net187
*350 net188
*351 net189
*352 net19
*353 net190
*354 net191
*355 net192
*356 net193
*357 net194
*358 net195
*359 net196
*360 net197
*361 net198
*362 net199
*363 net2
*364 net20
*365 net200
*366 net201
*367 net202
*368 net203
*369 net204
*370 net205
*371 net206
*372 net207
*373 net208
*374 net209
*375 net21
*376 net210
*377 net211
*378 net212
*379 net213
*380 net214
*381 net215
*382 net216
*383 net217
*384 net218
*385 net219
*386 net22
*387 net220
*388 net221
*389 net222
*390 net223
*391 net224
*392 net225
*393 net226
*394 net227
*395 net228
*396 net229
*397 net23
*398 net230
*399 net231
*400 net232
*401 net233
*402 net234
*403 net235
*404 net236
*405 net237
*406 net238
*407 net239
*408 net24
*409 net240
*410 net241
*411 net242
*412 net243
*413 net244
*414 net245
*415 net246
*416 net247
*417 net248
*418 net249
*419 net25
*420 net250
*421 net251
*422 net252
*423 net253
*424 net254
*425 net255
*426 net256
*427 net257
*428 net258
*429 net259
*430 net26
*431 net260
*432 net261
*433 net262
*434 net263
*435 net264
*436 net265
*437 net266
*438 net267
*439 net268
*440 net269
*441 net27
*442 net270
*443 net271
*444 net272
*445 net273
*446 net274
*447 net275
*448 net276
*449 net277
*450 net278
*451 net279
*452 net28
*453 net280
*454 net281
*455 net282
*456 net283
*457 net284
*458 net285
*459 net286
*460 net287
*461 net288
*462 net289
*463 net29
*464 net290
*465 net291
*466 net292
*467 net293
*468 net294
*469 net295
*470 net296
*471 net297
*472 net298
*473 net299
*474 net3
*475 net30
*476 net300
*477 net301
*478 net302
*479 net303
*480 net304
*481 net305
*482 net306
*483 net307
*484 net308
*485 net309
*486 net31
*487 net310
*488 net311
*489 net312
*490 net313
*491 net314
*492 net315
*493 net316
*494 net317
*495 net318
*496 net319
*497 net32
*498 net320
*499 net321
*500 net322
*501 net323
*502 net324
*503 net325
*504 net326
*505 net327
*506 net328
*507 net329
*508 net33
*509 net330
*510 net331
*511 net332
*512 net333
*513 net334
*514 net335
*515 net336
*516 net337
*517 net338
*518 net339
*519 net34
*520 net340
*521 net341
*522 net342
*523 net343
*524 net344
*525 net345
*526 net346
*527 net347
*528 net348
*529 net349
*530 net35
*531 net350
*532 net351
*533 net352
*534 net353
*535 net354
*536 net355
*537 net356
*538 net357
*539 net358
*540 net359
*541 net36
*542 net360
*543 net361
*544 net362
*545 net363
*546 net364
*547 net365
*548 net366
*549 net367
*550 net368
*551 net369
*552 net37
*553 net370
*554 net371
*555 net372
*556 net373
*557 net374
*558 net375
*559 net376
*560 net377
*561 net378
*562 net379
*563 net38
*564 net380
*565 net381
*566 net382
*567 net383
*568 net384
*569 net385
*570 net386
*571 net387
*572 net388
*573 net389
*574 net39
*575 net390
*576 net391
*577 net392
*578 net393
*579 net394
*580 net395
*581 net396
*582 net397
*583 net398
*584 net399
*585 net4
*586 net40
*587 net400
*588 net401
*589 net402
*590 net403
*591 net404
*592 net405
*593 net406
*594 net407
*595 net408
*596 net409
*597 net41
*598 net410
*599 net411
*600 net412
*601 net413
*602 net414
*603 net415
*604 net416
*605 net417
*606 net418
*607 net419
*608 net42
*609 net420
*610 net421
*611 net422
*612 net423
*613 net424
*614 net425
*615 net426
*616 net427
*617 net428
*618 net429
*619 net43
*620 net430
*621 net431
*622 net432
*623 net433
*624 net434
*625 net435
*626 net436
*627 net437
*628 net438
*629 net439
*630 net44
*631 net440
*632 net441
*633 net442
*634 net443
*635 net444
*636 net445
*637 net446
*638 net447
*639 net448
*640 net449
*641 net45
*642 net450
*643 net451
*644 net452
*645 net453
*646 net454
*647 net455
*648 net456
*649 net457
*650 net458
*651 net459
*652 net46
*653 net460
*654 net461
*655 net462
*656 net463
*657 net464
*658 net465
*659 net466
*660 net467
*661 net468
*662 net469
*663 net47
*664 net470
*665 net471
*666 net472
*667 net473
*668 net474
*669 net475
*670 net476
*671 net477
*672 net478
*673 net479
*674 net48
*675 net480
*676 net481
*677 net482
*678 net483
*679 net484
*680 net485
*681 net486
*682 net487
*683 net488
*684 net489
*685 net49
*686 net490
*687 net491
*688 net492
*689 net493
*690 net494
*691 net495
*692 net496
*693 net497
*694 net498
*695 net499
*696 net5
*697 net50
*698 net500
*699 net501
*700 net502
*701 net503
*702 net504
*703 net505
*704 net506
*705 net507
*706 net508
*707 net509
*708 net51
*709 net510
*710 net511
*711 net512
*712 net513
*713 net514
*714 net515
*715 net516
*716 net517
*717 net518
*718 net519
*719 net52
*720 net520
*721 net521
*722 net522
*723 net523
*724 net524
*725 net525
*726 net526
*727 net527
*728 net528
*729 net529
*730 net53
*731 net530
*732 net531
*733 net532
*734 net533
*735 net534
*736 net535
*737 net536
*738 net537
*739 net538
*740 net539
*741 net54
*742 net540
*743 net541
*744 net542
*745 net543
*746 net544
*747 net545
*748 net546
*749 net547
*750 net548
*751 net549
*752 net55
*753 net550
*754 net551
*755 net552
*756 net553
*757 net554
*758 net555
*759 net556
*760 net557
*761 net558
*762 net559
*763 net56
*764 net560
*765 net561
*766 net562
*767 net563
*768 net564
*769 net565
*770 net566
*771 net567
*772 net568
*773 net569
*774 net57
*775 net570
*776 net571
*777 net572
*778 net573
*779 net574
*780 net575
*781 net576
*782 net577
*783 net578
*784 net579
*785 net58
*786 net580
*787 net581
*788 net582
*789 net583
*790 net584
*791 net585
*792 net586
*793 net587
*794 net588
*795 net589
*796 net59
*797 net590
*798 net591
*799 net592
*800 net593
*801 net594
*802 net595
*803 net596
*804 net597
*805 net598
*806 net599
*807 net6
*808 net60
*809 net600
*810 net601
*811 net602
*812 net603
*813 net604
*814 net605
*815 net606
*816 net607
*817 net608
*818 net609
*819 net61
*820 net610
*821 net611
*822 net612
*823 net613
*824 net614
*825 net615
*826 net616
*827 net617
*828 net618
*829 net619
*830 net62
*831 net620
*832 net621
*833 net622
*834 net623
*835 net624
*836 net625
*837 net626
*838 net627
*839 net628
*840 net629
*841 net63
*842 net630
*843 net631
*844 net632
*845 net633
*846 net634
*847 net635
*848 net636
*849 net637
*850 net638
*851 net639
*852 net64
*853 net640
*854 net641
*855 net642
*856 net643
*857 net644
*858 net645
*859 net646
*860 net647
*861 net648
*862 net649
*863 net65
*864 net650
*865 net651
*866 net652
*867 net653
*868 net654
*869 net655
*870 net656
*871 net657
*872 net658
*873 net659
*874 net66
*875 net660
*876 net661
*877 net662
*878 net663
*879 net664
*880 net665
*881 net666
*882 net667
*883 net668
*884 net669
*885 net67
*886 net670
*887 net671
*888 net672
*889 net673
*890 net674
*891 net675
*892 net676
*893 net677
*894 net678
*895 net679
*896 net68
*897 net680
*898 net681
*899 net682
*900 net683
*901 net684
*902 net685
*903 net686
*904 net687
*905 net688
*906 net689
*907 net69
*908 net690
*909 net691
*910 net692
*911 net693
*912 net694
*913 net695
*914 net696
*915 net697
*916 net698
*917 net699
*918 net7
*919 net70
*920 net700
*921 net701
*922 net702
*923 net703
*924 net704
*925 net705
*926 net706
*927 net707
*928 net708
*929 net709
*930 net71
*931 net710
*932 net711
*933 net712
*934 net713
*935 net714
*936 net715
*937 net716
*938 net717
*939 net718
*940 net719
*941 net72
*942 net720
*943 net721
*944 net722
*945 net723
*946 net724
*947 net725
*948 net726
*949 net727
*950 net728
*951 net729
*952 net73
*953 net730
*954 net731
*955 net732
*956 net733
*957 net734
*958 net735
*959 net736
*960 net737
*961 net738
*962 net739
*963 net74
*964 net740
*965 net741
*966 net742
*967 net743
*968 net744
*969 net745
*970 net746
*971 net747
*972 net748
*973 net749
*974 net75
*975 net750
*976 net751
*977 net752
*978 net753
*979 net754
*980 net755
*981 net756
*982 net757
*983 net758
*984 net759
*985 net76
*986 net760
*987 net761
*988 net762
*989 net763
*990 net764
*991 net765
*992 net766
*993 net767
*994 net768
*995 net769
*996 net77
*997 net770
*998 net771
*999 net772
*1000 net773
*1001 net774
*1002 net775
*1003 net776
*1004 net777
*1005 net778
*1006 net779
*1007 net78
*1008 net780
*1009 net781
*1010 net782
*1011 net783
*1012 net784
*1013 net785
*1014 net786
*1015 net787
*1016 net788
*1017 net789
*1018 net79
*1019 net790
*1020 net791
*1021 net792
*1022 net793
*1023 net794
*1024 net795
*1025 net796
*1026 net797
*1027 net798
*1028 net799
*1029 net8
*1030 net80
*1031 net800
*1032 net801
*1033 net802
*1034 net803
*1035 net804
*1036 net805
*1037 net806
*1038 net807
*1039 net808
*1040 net809
*1041 net81
*1042 net810
*1043 net811
*1044 net812
*1045 net813
*1046 net814
*1047 net815
*1048 net816
*1049 net817
*1050 net818
*1051 net819
*1052 net82
*1053 net820
*1054 net821
*1055 net822
*1056 net823
*1057 net824
*1058 net825
*1059 net826
*1060 net827
*1061 net828
*1062 net829
*1063 net83
*1064 net830
*1065 net831
*1066 net832
*1067 net833
*1068 net834
*1069 net835
*1070 net836
*1071 net837
*1072 net838
*1073 net839
*1074 net84
*1075 net840
*1076 net841
*1077 net842
*1078 net843
*1079 net844
*1080 net845
*1081 net846
*1082 net847
*1083 net848
*1084 net849
*1085 net85
*1086 net850
*1087 net851
*1088 net852
*1089 net853
*1090 net854
*1091 net855
*1092 net856
*1093 net857
*1094 net858
*1095 net859
*1096 net86
*1097 net860
*1098 net861
*1099 net862
*1100 net863
*1101 net864
*1102 net865
*1103 net866
*1104 net867
*1105 net868
*1106 net869
*1107 net87
*1108 net870
*1109 net871
*1110 net872
*1111 net873
*1112 net874
*1113 net875
*1114 net876
*1115 net877
*1116 net878
*1117 net879
*1118 net88
*1119 net880
*1120 net881
*1121 net882
*1122 net883
*1123 net884
*1124 net885
*1125 net886
*1126 net887
*1127 net888
*1128 net889
*1129 net89
*1130 net890
*1131 net891
*1132 net892
*1133 net893
*1134 net894
*1135 net895
*1136 net896
*1137 net897
*1138 net898
*1139 net899
*1140 net9
*1141 net90
*1142 net900
*1143 net901
*1144 net902
*1145 net903
*1146 net904
*1147 net905
*1148 net906
*1149 net907
*1150 net908
*1151 net909
*1152 net91
*1153 net910
*1154 net911
*1155 net912
*1156 net913
*1157 net914
*1158 net915
*1159 net916
*1160 net917
*1161 net918
*1162 net919
*1163 net92
*1164 net920
*1165 net921
*1166 net922
*1167 net923
*1168 net924
*1169 net925
*1170 net926
*1171 net927
*1172 net928
*1173 net929
*1174 net93
*1175 net930
*1176 net931
*1177 net932
*1178 net933
*1179 net934
*1180 net935
*1181 net936
*1182 net937
*1183 net938
*1184 net939
*1185 net94
*1186 net940
*1187 net941
*1188 net942
*1189 net943
*1190 net944
*1191 net945
*1192 net946
*1193 net947
*1194 net948
*1195 net949
*1196 net95
*1197 net950
*1198 net951
*1199 net952
*1200 net953
*1201 net954
*1202 net955
*1203 net956
*1204 net957
*1205 net958
*1206 net959
*1207 net96
*1208 net960
*1209 net961
*1210 net962
*1211 net963
*1212 net964
*1213 net965
*1214 net966
*1215 net967
*1216 net968
*1217 net97
*1218 net98
*1219 net99
*1220 ANTENNA_c101_SCE
*1221 ANTENNA_c105_B1_N
*1222 ANTENNA_c105_X
*1223 ANTENNA_c106_A
*1224 ANTENNA_c107_B
*1225 ANTENNA_c110_D
*1226 ANTENNA_c117_D
*1227 ANTENNA_c118_A
*1228 ANTENNA_c119_RESET_B
*1229 ANTENNA_c121_RESET_B
*1230 ANTENNA_c126_A
*1231 ANTENNA_c126_X
*1232 ANTENNA_c127_A
*1233 ANTENNA_c128_A
*1234 ANTENNA_c129_A
*1235 ANTENNA_c130_B
*1236 ANTENNA_c130_Y
*1237 ANTENNA_c131_A
*1238 ANTENNA_c131_X
*1239 ANTENNA_c132_A
*1240 ANTENNA_c132_X
*1241 ANTENNA_c133_X
*1242 ANTENNA_c135_B
*1243 ANTENNA_c135_Y
*1244 ANTENNA_c136_B
*1245 ANTENNA_c137_X
*1246 ANTENNA_c138_A1
*1247 ANTENNA_c138_A2
*1248 ANTENNA_c138_A3
*1249 ANTENNA_c138_S0
*1250 ANTENNA_c138_S1
*1251 ANTENNA_c138_X
*1252 ANTENNA_c139_SCD
*1253 ANTENNA_c139_SCE
*1254 ANTENNA_c141_A0
*1255 ANTENNA_c141_A1
*1256 ANTENNA_c141_A3
*1257 ANTENNA_c142_A
*1258 ANTENNA_c144_A
*1259 ANTENNA_c144_B
*1260 ANTENNA_c144_Y
*1261 ANTENNA_c145_A
*1262 ANTENNA_c147_X
*1263 ANTENNA_c149_A
*1264 ANTENNA_c149_B
*1265 ANTENNA_c149_Y
*1266 ANTENNA_c151_SCE
*1267 ANTENNA_c152_Y
*1268 ANTENNA_c153_B
*1269 ANTENNA_c154_A
*1270 ANTENNA_c161_Q
*1271 ANTENNA_c162_X
*1272 ANTENNA_c164_B1_N
*1273 ANTENNA_c165_SCD
*1274 ANTENNA_c167_Q
*1275 ANTENNA_c169_RESET_B
*1276 ANTENNA_c171_A1
*1277 ANTENNA_c171_A2
*1278 ANTENNA_c171_B1_N
*1279 ANTENNA_c171_X
*1280 ANTENNA_c172_RESET_B
*1281 ANTENNA_c173_X
*1282 ANTENNA_c175_B
*1283 ANTENNA_c176_RESET_B
*1284 ANTENNA_c177_A
*1285 ANTENNA_c178_SET_B
*1286 ANTENNA_c179_B1_N
*1287 ANTENNA_c181_A1
*1288 ANTENNA_c181_S1
*1289 ANTENNA_c183_A2
*1290 ANTENNA_c188_Q
*1291 ANTENNA_c188_Q_N
*1292 ANTENNA_c189_D
*1293 ANTENNA_c189_Q
*1294 ANTENNA_c190_B
*1295 ANTENNA_c192_CLK
*1296 ANTENNA_c194_B
*1297 ANTENNA_c195_SET_B
*1298 ANTENNA_c197_A
*1299 ANTENNA_c197_B
*1300 ANTENNA_c197_Y
*1301 ANTENNA_c203_Q
*1302 ANTENNA_c207_GATE_N
*1303 ANTENNA_c207_RESET_B
*1304 ANTENNA_c209_A3
*1305 ANTENNA_c210_A
*1306 ANTENNA_c210_Y
*1307 ANTENNA_c215_A
*1308 ANTENNA_c216_A2
*1309 ANTENNA_c217_D
*1310 ANTENNA_c217_Q
*1311 ANTENNA_c217_RESET_B
*1312 ANTENNA_c218_RESET_B
*1313 ANTENNA_c218_SET_B
*1314 ANTENNA_c219_Y
*1315 ANTENNA_c220_B
*1316 ANTENNA_c221_Q
*1317 ANTENNA_c222_RESET_B
*1318 ANTENNA_c223_X
*1319 ANTENNA_c224_RESET_B
*1320 ANTENNA_c224_SET_B
*1321 ANTENNA_c225_SCE
*1322 ANTENNA_c226_SCE
*1323 ANTENNA_c227_B
*1324 ANTENNA_c228_RESET_B
*1325 ANTENNA_c234_A2
*1326 ANTENNA_c235_A2
*1327 ANTENNA_c236_DE
*1328 ANTENNA_c237_A1
*1329 ANTENNA_c237_X
*1330 ANTENNA_c238_A2
*1331 ANTENNA_c238_B1_N
*1332 ANTENNA_c239_B1_N
*1333 ANTENNA_c240_B1_N
*1334 ANTENNA_c241_SCD
*1335 ANTENNA_c246_D
*1336 ANTENNA_c246_SET_B
*1337 ANTENNA_c247_A3
*1338 ANTENNA_c249_D
*1339 ANTENNA_c251_A3
*1340 ANTENNA_c252_A
*1341 ANTENNA_c252_X
*1342 ANTENNA_c253_B
*1343 ANTENNA_c253_Y
*1344 ANTENNA_c254_Y
*1345 ANTENNA_c255_A
*1346 ANTENNA_c255_B
*1347 ANTENNA_c256_X
*1348 ANTENNA_c257_A
*1349 ANTENNA_c257_B
*1350 ANTENNA_c258_X
*1351 ANTENNA_c25_Y
*1352 ANTENNA_c260_A
*1353 ANTENNA_c264_B
*1354 ANTENNA_c264_Y
*1355 ANTENNA_c265_GATE
*1356 ANTENNA_c267_X
*1357 ANTENNA_c269_B
*1358 ANTENNA_c26_A0
*1359 ANTENNA_c26_A1
*1360 ANTENNA_c26_A3
*1361 ANTENNA_c26_S1
*1362 ANTENNA_c273_Y
*1363 ANTENNA_c275_RESET_B
*1364 ANTENNA_c278_B
*1365 ANTENNA_c27_A
*1366 ANTENNA_c280_Q
*1367 ANTENNA_c284_Q
*1368 ANTENNA_c284_RESET_B
*1369 ANTENNA_c287_SCD
*1370 ANTENNA_c289_A2
*1371 ANTENNA_c28_A
*1372 ANTENNA_c291_Q
*1373 ANTENNA_c291_Q_N
*1374 ANTENNA_c291_RESET_B
*1375 ANTENNA_c292_Q
*1376 ANTENNA_c293_RESET_B
*1377 ANTENNA_c293_SET_B
*1378 ANTENNA_c294_D
*1379 ANTENNA_c296_D
*1380 ANTENNA_c296_SCD
*1381 ANTENNA_c296_SCE
*1382 ANTENNA_c297_A3
*1383 ANTENNA_c298_SCD
*1384 ANTENNA_c298_SCE
*1385 ANTENNA_c299_B1_N
*1386 ANTENNA_c299_X
*1387 ANTENNA_c29_A
*1388 ANTENNA_c300_A2
*1389 ANTENNA_c300_B1_N
*1390 ANTENNA_c303_SET_B
*1391 ANTENNA_c304_Q
*1392 ANTENNA_c305_GATE_N
*1393 ANTENNA_c306_A
*1394 ANTENNA_c307_RESET_B
*1395 ANTENNA_c308_A1
*1396 ANTENNA_c308_A3
*1397 ANTENNA_c308_S0
*1398 ANTENNA_c308_S1
*1399 ANTENNA_c309_Y
*1400 ANTENNA_c30_X
*1401 ANTENNA_c310_GATE
*1402 ANTENNA_c311_CLK_N
*1403 ANTENNA_c311_Q
*1404 ANTENNA_c311_Q_N
*1405 ANTENNA_c311_RESET_B
*1406 ANTENNA_c312_Y
*1407 ANTENNA_c313_A2
*1408 ANTENNA_c313_B1_N
*1409 ANTENNA_c314_GATE
*1410 ANTENNA_c314_RESET_B
*1411 ANTENNA_c315_D
*1412 ANTENNA_c315_RESET_B
*1413 ANTENNA_c316_D
*1414 ANTENNA_c316_GATE_N
*1415 ANTENNA_c316_RESET_B
*1416 ANTENNA_c317_B
*1417 ANTENNA_c318_A
*1418 ANTENNA_c318_B
*1419 ANTENNA_c319_CLK
*1420 ANTENNA_c319_SCD
*1421 ANTENNA_c319_SCE
*1422 ANTENNA_c320_GATE_N
*1423 ANTENNA_c320_RESET_B
*1424 ANTENNA_c321_D
*1425 ANTENNA_c321_GATE
*1426 ANTENNA_c322_CLK_N
*1427 ANTENNA_c323_GATE
*1428 ANTENNA_c324_A
*1429 ANTENNA_c325_RESET_B
*1430 ANTENNA_c326_B1_N
*1431 ANTENNA_c328_B
*1432 ANTENNA_c331_A1
*1433 ANTENNA_c331_A2
*1434 ANTENNA_c331_S0
*1435 ANTENNA_c332_CLK_N
*1436 ANTENNA_c332_RESET_B
*1437 ANTENNA_c333_CLK
*1438 ANTENNA_c333_RESET_B
*1439 ANTENNA_c335_S0
*1440 ANTENNA_c335_S1
*1441 ANTENNA_c336_B
*1442 ANTENNA_c338_DE
*1443 ANTENNA_c340_SCE
*1444 ANTENNA_c342_B
*1445 ANTENNA_c344_A
*1446 ANTENNA_c347_SCE
*1447 ANTENNA_c348_A
*1448 ANTENNA_c349_Y
*1449 ANTENNA_c34_B
*1450 ANTENNA_c34_Y
*1451 ANTENNA_c351_A2
*1452 ANTENNA_c352_SCD
*1453 ANTENNA_c353_S1
*1454 ANTENNA_c354_D
*1455 ANTENNA_c354_SCD
*1456 ANTENNA_c355_B1_N
*1457 ANTENNA_c357_SCD
*1458 ANTENNA_c357_SCE
*1459 ANTENNA_c358_B1_N
*1460 ANTENNA_c359_A
*1461 ANTENNA_c359_Y
*1462 ANTENNA_c35_A
*1463 ANTENNA_c360_A2
*1464 ANTENNA_c360_B1_N
*1465 ANTENNA_c361_A3
*1466 ANTENNA_c361_B1
*1467 ANTENNA_c362_A2
*1468 ANTENNA_c367_D
*1469 ANTENNA_c367_RESET_B
*1470 ANTENNA_c368_A1
*1471 ANTENNA_c36_X
*1472 ANTENNA_c370_A2
*1473 ANTENNA_c371_A3
*1474 ANTENNA_c372_A1
*1475 ANTENNA_c372_B1_N
*1476 ANTENNA_c378_A
*1477 ANTENNA_c378_B
*1478 ANTENNA_c379_B
*1479 ANTENNA_c37_Y
*1480 ANTENNA_c380_Q
*1481 ANTENNA_c383_A
*1482 ANTENNA_c383_B
*1483 ANTENNA_c384_RESET_B
*1484 ANTENNA_c385_SET_B
*1485 ANTENNA_c386_A
*1486 ANTENNA_c386_X
*1487 ANTENNA_c387_RESET_B
*1488 ANTENNA_c388_Y
*1489 ANTENNA_c389_B
*1490 ANTENNA_c38_X
*1491 ANTENNA_c390_Q
*1492 ANTENNA_c391_A1
*1493 ANTENNA_c394_A
*1494 ANTENNA_c394_B
*1495 ANTENNA_c395_Y
*1496 ANTENNA_c396_Q
*1497 ANTENNA_c396_Q_N
*1498 ANTENNA_c396_SCE
*1499 ANTENNA_c397_Q
*1500 ANTENNA_c397_Q_N
*1501 ANTENNA_c397_SET_B
*1502 ANTENNA_c398_SCD
*1503 ANTENNA_c399_A
*1504 ANTENNA_c39_A
*1505 ANTENNA_c400_A
*1506 ANTENNA_c400_Y
*1507 ANTENNA_c402_B
*1508 ANTENNA_c403_B
*1509 ANTENNA_c403_Y
*1510 ANTENNA_c404_B
*1511 ANTENNA_c405_A
*1512 ANTENNA_c405_B
*1513 ANTENNA_c406_B
*1514 ANTENNA_c408_B1_N
*1515 ANTENNA_c40_A1
*1516 ANTENNA_c40_A2
*1517 ANTENNA_c40_B1_N
*1518 ANTENNA_c40_X
*1519 ANTENNA_c412_Q
*1520 ANTENNA_c412_SET_B
*1521 ANTENNA_c414_SCD
*1522 ANTENNA_c415_Q
*1523 ANTENNA_c416_B1_N
*1524 ANTENNA_c417_A1
*1525 ANTENNA_c417_A3
*1526 ANTENNA_c417_S1
*1527 ANTENNA_c418_A3
*1528 ANTENNA_c418_S0
*1529 ANTENNA_c419_D
*1530 ANTENNA_c419_Q
*1531 ANTENNA_c41_SET_B
*1532 ANTENNA_c422_B
*1533 ANTENNA_c423_B
*1534 ANTENNA_c426_RESET_B
*1535 ANTENNA_c426_SCD
*1536 ANTENNA_c427_SET_B
*1537 ANTENNA_c433_A3
*1538 ANTENNA_c433_S0
*1539 ANTENNA_c434_A2
*1540 ANTENNA_c434_A3
*1541 ANTENNA_c439_Q
*1542 ANTENNA_c43_B
*1543 ANTENNA_c440_A2
*1544 ANTENNA_c440_A3
*1545 ANTENNA_c441_A2
*1546 ANTENNA_c441_B1_N
*1547 ANTENNA_c442_D
*1548 ANTENNA_c442_RESET_B
*1549 ANTENNA_c444_CLK
*1550 ANTENNA_c444_SET_B
*1551 ANTENNA_c445_A1
*1552 ANTENNA_c446_CLK
*1553 ANTENNA_c446_SCE
*1554 ANTENNA_c449_SCD
*1555 ANTENNA_c450_A
*1556 ANTENNA_c451_A1
*1557 ANTENNA_c452_A
*1558 ANTENNA_c453_A2
*1559 ANTENNA_c454_A1
*1560 ANTENNA_c454_B1
*1561 ANTENNA_c457_SCE
*1562 ANTENNA_c457_SET_B
*1563 ANTENNA_c458_SCD
*1564 ANTENNA_c460_CLK_N
*1565 ANTENNA_c460_SET_B
*1566 ANTENNA_c461_B1
*1567 ANTENNA_c462_A1
*1568 ANTENNA_c462_A2
*1569 ANTENNA_c464_B
*1570 ANTENNA_c468_B
*1571 ANTENNA_c46_Q
*1572 ANTENNA_c471_B
*1573 ANTENNA_c472_B
*1574 ANTENNA_c472_Y
*1575 ANTENNA_c475_Q
*1576 ANTENNA_c475_SCD
*1577 ANTENNA_c476_A0
*1578 ANTENNA_c476_A2
*1579 ANTENNA_c476_A3
*1580 ANTENNA_c477_D
*1581 ANTENNA_c477_SCD
*1582 ANTENNA_c478_A1
*1583 ANTENNA_c478_A3
*1584 ANTENNA_c479_A2
*1585 ANTENNA_c479_A3
*1586 ANTENNA_c479_S0
*1587 ANTENNA_c479_S1
*1588 ANTENNA_c47_A
*1589 ANTENNA_c480_S0
*1590 ANTENNA_c481_B1_N
*1591 ANTENNA_c482_A0
*1592 ANTENNA_c482_S1
*1593 ANTENNA_c487_A1
*1594 ANTENNA_c487_B1_N
*1595 ANTENNA_c48_Q
*1596 ANTENNA_c48_Q_N
*1597 ANTENNA_c490_B1_N
*1598 ANTENNA_c492_RESET_B
*1599 ANTENNA_c493_D
*1600 ANTENNA_c494_SCD
*1601 ANTENNA_c495_A2
*1602 ANTENNA_c495_A3
*1603 ANTENNA_c495_B1
*1604 ANTENNA_c496_SCD
*1605 ANTENNA_c498_A1
*1606 ANTENNA_c498_A2
*1607 ANTENNA_c498_A3
*1608 ANTENNA_c499_D
*1609 ANTENNA_c499_SCD
*1610 ANTENNA_c499_SCE
*1611 ANTENNA_c49_Y
*1612 ANTENNA_c501_SCE
*1613 ANTENNA_c502_B1_N
*1614 ANTENNA_c503_D
*1615 ANTENNA_c503_SCD
*1616 ANTENNA_c503_SET_B
*1617 ANTENNA_c504_X
*1618 ANTENNA_c505_X
*1619 ANTENNA_c506_A
*1620 ANTENNA_c506_B
*1621 ANTENNA_c507_A
*1622 ANTENNA_c508_A
*1623 ANTENNA_c509_X
*1624 ANTENNA_c510_Y
*1625 ANTENNA_c511_B
*1626 ANTENNA_c512_B
*1627 ANTENNA_c514_A
*1628 ANTENNA_c518_Q
*1629 ANTENNA_c51_B
*1630 ANTENNA_c51_Y
*1631 ANTENNA_c526_X
*1632 ANTENNA_c527_SCD
*1633 ANTENNA_c528_B
*1634 ANTENNA_c529_B
*1635 ANTENNA_c533_A2
*1636 ANTENNA_c534_Q
*1637 ANTENNA_c534_RESET_B
*1638 ANTENNA_c535_Q
*1639 ANTENNA_c537_B
*1640 ANTENNA_c538_B1_N
*1641 ANTENNA_c538_X
*1642 ANTENNA_c53_A
*1643 ANTENNA_c53_X
*1644 ANTENNA_c540_Q
*1645 ANTENNA_c540_RESET_B
*1646 ANTENNA_c542_B
*1647 ANTENNA_c543_A0
*1648 ANTENNA_c543_A3
*1649 ANTENNA_c543_S1
*1650 ANTENNA_c545_D
*1651 ANTENNA_c546_B
*1652 ANTENNA_c547_CLK
*1653 ANTENNA_c547_GATE
*1654 ANTENNA_c547_SCE
*1655 ANTENNA_c548_D
*1656 ANTENNA_c548_SET_B
*1657 ANTENNA_c549_Y
*1658 ANTENNA_c54_A1
*1659 ANTENNA_c54_A2
*1660 ANTENNA_c54_B1_N
*1661 ANTENNA_c550_GCLK
*1662 ANTENNA_c551_A
*1663 ANTENNA_c552_GATE
*1664 ANTENNA_c553_B
*1665 ANTENNA_c554_B
*1666 ANTENNA_c555_CLK
*1667 ANTENNA_c555_D
*1668 ANTENNA_c555_RESET_B
*1669 ANTENNA_c556_RESET_B
*1670 ANTENNA_c557_RESET_B
*1671 ANTENNA_c558_RESET_B
*1672 ANTENNA_c558_SCE
*1673 ANTENNA_c558_SET_B
*1674 ANTENNA_c559_D
*1675 ANTENNA_c559_RESET_B
*1676 ANTENNA_c560_A1
*1677 ANTENNA_c560_B1
*1678 ANTENNA_c561_A3
*1679 ANTENNA_c561_S1
*1680 ANTENNA_c563_A2
*1681 ANTENNA_c565_D
*1682 ANTENNA_c566_SCE
*1683 ANTENNA_c567_B
*1684 ANTENNA_c56_Q
*1685 ANTENNA_c56_RESET_B
*1686 ANTENNA_c570_A2
*1687 ANTENNA_c570_B1_N
*1688 ANTENNA_c570_X
*1689 ANTENNA_c572_B1_N
*1690 ANTENNA_c573_CLK
*1691 ANTENNA_c573_SCD
*1692 ANTENNA_c573_SCE
*1693 ANTENNA_c574_A2
*1694 ANTENNA_c574_B1_N
*1695 ANTENNA_c576_B
*1696 ANTENNA_c577_D
*1697 ANTENNA_c578_SCD
*1698 ANTENNA_c579_CLK
*1699 ANTENNA_c580_B
*1700 ANTENNA_c582_CLK
*1701 ANTENNA_c582_SCE
*1702 ANTENNA_c583_A3
*1703 ANTENNA_c583_B1
*1704 ANTENNA_c584_CLK
*1705 ANTENNA_c585_SET_B
*1706 ANTENNA_c587_A0
*1707 ANTENNA_c588_RESET_B
*1708 ANTENNA_c588_SET_B
*1709 ANTENNA_c589_A
*1710 ANTENNA_c58_A
*1711 ANTENNA_c58_B
*1712 ANTENNA_c58_Y
*1713 ANTENNA_c590_SCD
*1714 ANTENNA_c590_SCE
*1715 ANTENNA_c590_SET_B
*1716 ANTENNA_c591_A1
*1717 ANTENNA_c591_B1_N
*1718 ANTENNA_c592_A
*1719 ANTENNA_c595_D
*1720 ANTENNA_c595_RESET_B
*1721 ANTENNA_c595_SET_B
*1722 ANTENNA_c596_A
*1723 ANTENNA_c597_CLK
*1724 ANTENNA_c597_SCD
*1725 ANTENNA_c597_SCE
*1726 ANTENNA_c598_A1
*1727 ANTENNA_c598_B1_N
*1728 ANTENNA_c599_A1
*1729 ANTENNA_c599_B1_N
*1730 ANTENNA_c59_A
*1731 ANTENNA_c59_B
*1732 ANTENNA_c600_SCE
*1733 ANTENNA_c601_B1_N
*1734 ANTENNA_c602_D
*1735 ANTENNA_c602_SCD
*1736 ANTENNA_c602_SET_B
*1737 ANTENNA_c603_B1_N
*1738 ANTENNA_c605_D
*1739 ANTENNA_c606_D
*1740 ANTENNA_c608_A2
*1741 ANTENNA_c61_A
*1742 ANTENNA_c630_A
*1743 ANTENNA_c634_B
*1744 ANTENNA_c634_Y
*1745 ANTENNA_c635_B
*1746 ANTENNA_c636_A
*1747 ANTENNA_c637_SET_B
*1748 ANTENNA_c638_RESET_B
*1749 ANTENNA_c638_SET_B
*1750 ANTENNA_c640_Y
*1751 ANTENNA_c641_Q
*1752 ANTENNA_c641_Q_N
*1753 ANTENNA_c641_SET_B
*1754 ANTENNA_c642_B
*1755 ANTENNA_c643_D
*1756 ANTENNA_c644_D
*1757 ANTENNA_c646_A2
*1758 ANTENNA_c646_B1_N
*1759 ANTENNA_c649_D
*1760 ANTENNA_c649_SCD
*1761 ANTENNA_c64_X
*1762 ANTENNA_c650_SET_B
*1763 ANTENNA_c651_RESET_B
*1764 ANTENNA_c652_Y
*1765 ANTENNA_c653_RESET_B
*1766 ANTENNA_c654_A3
*1767 ANTENNA_c654_S1
*1768 ANTENNA_c656_RESET_B
*1769 ANTENNA_c656_SET_B
*1770 ANTENNA_c657_SCE
*1771 ANTENNA_c65_A3
*1772 ANTENNA_c65_S0
*1773 ANTENNA_c660_B1
*1774 ANTENNA_c664_D
*1775 ANTENNA_c665_RESET_B