*SPEF "ieee 1481-1999"
*DESIGN "netlist_1"
*DATE "00:25:25 Friday August 16, 2024"
*VENDOR "The OpenROAD Project"
*PROGRAM "OpenROAD"
*VERSION "d423155d69de7f683a23f6916ead418a615ad4ad"
*DESIGN_FLOW "NAME_SCOPE LOCAL" "PIN_CAP NONE"
*DIVIDER /
*DELIMITER :
*BUS_DELIMITER []
*T_UNIT 1 NS
*C_UNIT 1 PF
*R_UNIT 1 OHM
*L_UNIT 1 HENRY

*NAME_MAP
*3 clk
*4 in0
*5 in1
*6 in10
*7 in11
*8 in12
*9 in13
*10 in14
*11 in15
*12 in16
*13 in17
*14 in18
*15 in19
*16 in2
*17 in20
*18 in21
*19 in22
*20 in23
*21 in24
*22 in25
*23 in26
*24 in27
*25 in28
*26 in29
*27 in3
*28 in30
*29 in31
*30 in32
*31 in33
*32 in34
*33 in35
*34 in36
*35 in37
*36 in38
*37 in39
*38 in4
*39 in40
*40 in41
*41 in42
*42 in43
*43 in44
*44 in45
*45 in46
*46 in47
*47 in48
*48 in49
*49 in5
*50 in50
*51 in51
*52 in52
*53 in53
*54 in54
*55 in55
*56 in56
*57 in57
*58 in58
*59 in59
*60 in6
*61 in60
*62 in61
*63 in62
*64 in63
*65 in64
*66 in65
*67 in66
*68 in67
*69 in68
*70 in69
*71 in7
*72 in70
*73 in71
*74 in72
*75 in73
*76 in74
*77 in75
*78 in76
*79 in77
*80 in78
*81 in79
*82 in8
*83 in80
*84 in81
*85 in82
*86 in83
*87 in84
*88 in85
*89 in86
*90 in87
*91 in88
*92 in89
*93 in9
*94 in90
*95 in91
*96 in92
*97 in93
*98 in94
*99 in95
*100 in96
*101 in97
*102 in98
*103 in99
*104 out0
*105 out1
*106 out10
*107 out11
*108 out12
*109 out13
*110 out14
*111 out15
*112 out16
*113 out17
*114 out18
*115 out19
*116 out2
*117 out20
*118 out21
*119 out22
*120 out23
*121 out24
*122 out25
*123 out26
*124 out27
*125 out28
*126 out29
*127 out3
*128 out30
*129 out31
*130 out32
*131 out33
*132 out34
*133 out35
*134 out36
*135 out37
*136 out38
*137 out39
*138 out4
*139 out40
*140 out41
*141 out42
*142 out43
*143 out44
*144 out45
*145 out46
*146 out47
*147 out48
*148 out49
*149 out5
*150 out50
*151 out51
*152 out52
*153 out53
*154 out54
*155 out55
*156 out56
*157 out57
*158 out58
*159 out59
*160 out6
*161 out60
*162 out61
*163 out62
*164 out63
*165 out64
*166 out65
*167 out66
*168 out67
*169 out68
*170 out69
*171 out7
*172 out70
*173 out71
*174 out72
*175 out73
*176 out74
*177 out75
*178 out76
*179 out77
*180 out78
*181 out79
*182 out8
*183 out80
*184 out81
*185 out82
*186 out83
*187 out84
*188 out85
*189 out86
*190 out87
*191 out88
*192 out89
*193 out9
*194 out90
*195 out91
*196 out92
*197 out93
*198 out94
*199 out95
*200 out96
*201 out97
*202 out98
*203 out99
*204 rst
*205 clknet_0_clk
*206 clknet_0_net155
*207 clknet_0_net173
*208 clknet_0_net174
*209 clknet_0_net176
*210 clknet_0_net177
*211 clknet_0_net180
*212 clknet_0_net183
*213 clknet_0_net189
*214 clknet_0_net250
*215 clknet_0_net276
*216 clknet_0_net281
*217 clknet_0_net290
*218 clknet_0_net292
*219 clknet_0_net296
*220 clknet_0_net315
*221 clknet_0_net316
*222 clknet_0_net317
*223 clknet_0_net318
*224 clknet_0_net321
*225 clknet_0_net338
*226 clknet_0_net343
*227 clknet_0_net345
*228 clknet_0_net349
*229 clknet_0_net355
*230 clknet_0_net359
*231 clknet_0_net367
*232 clknet_0_net371
*233 clknet_0_net385
*234 clknet_0_net386
*235 clknet_0_net389
*236 clknet_0_net400
*237 clknet_0_net426
*238 clknet_0_net428
*239 clknet_0_net429
*240 clknet_0_net435
*241 clknet_0_net437
*242 clknet_0_net440
*243 clknet_0_net444
*244 clknet_0_net448
*245 clknet_0_net450
*246 clknet_0_net451
*247 clknet_0_net452
*248 clknet_0_net454
*249 clknet_0_net457
*250 clknet_0_net458
*251 clknet_0_net459
*252 clknet_0_net463
*253 clknet_0_net466
*254 clknet_0_net482
*255 clknet_0_net483
*256 clknet_0_net492
*257 clknet_0_net571
*258 clknet_0_net577
*259 clknet_0_net609
*260 clknet_0_net610
*261 clknet_0_net630
*262 clknet_0_net631
*263 clknet_0_net632
*264 clknet_0_net651
*265 clknet_0_net652
*266 clknet_0_net653
*267 clknet_0_net671
*268 clknet_0_net672
*269 clknet_0_net673
*270 clknet_0_net691
*271 clknet_0_net692
*272 clknet_0_net693
*273 clknet_0_net711
*274 clknet_0_net712
*275 clknet_0_net713
*276 clknet_0_net78
*277 clknet_0_net834
*278 clknet_0_net836
*279 clknet_0_net84
*280 clknet_0_net844
*281 clknet_0_net851
*282 clknet_0_net853
*283 clknet_0_net855
*284 clknet_0_net86
*285 clknet_0_net860
*286 clknet_0_net866
*287 clknet_0_net868
*288 clknet_0_net875
*289 clknet_0_net93
*290 clknet_0_net96
*291 clknet_1_0__leaf_net155
*292 clknet_1_0__leaf_net173
*293 clknet_1_0__leaf_net174
*294 clknet_1_0__leaf_net176
*295 clknet_1_0__leaf_net177
*296 clknet_1_0__leaf_net180
*297 clknet_1_0__leaf_net183
*298 clknet_1_0__leaf_net189
*299 clknet_1_0__leaf_net250
*300 clknet_1_0__leaf_net276
*301 clknet_1_0__leaf_net281
*302 clknet_1_0__leaf_net290
*303 clknet_1_0__leaf_net292
*304 clknet_1_0__leaf_net296
*305 clknet_1_0__leaf_net315
*306 clknet_1_0__leaf_net316
*307 clknet_1_0__leaf_net317
*308 clknet_1_0__leaf_net318
*309 clknet_1_0__leaf_net321
*310 clknet_1_0__leaf_net338
*311 clknet_1_0__leaf_net343
*312 clknet_1_0__leaf_net345
*313 clknet_1_0__leaf_net349
*314 clknet_1_0__leaf_net355
*315 clknet_1_0__leaf_net359
*316 clknet_1_0__leaf_net367
*317 clknet_1_0__leaf_net371
*318 clknet_1_0__leaf_net385
*319 clknet_1_0__leaf_net386
*320 clknet_1_0__leaf_net389
*321 clknet_1_0__leaf_net400
*322 clknet_1_0__leaf_net426
*323 clknet_1_0__leaf_net428
*324 clknet_1_0__leaf_net429
*325 clknet_1_0__leaf_net435
*326 clknet_1_0__leaf_net437
*327 clknet_1_0__leaf_net440
*328 clknet_1_0__leaf_net444
*329 clknet_1_0__leaf_net448
*330 clknet_1_0__leaf_net450
*331 clknet_1_0__leaf_net451
*332 clknet_1_0__leaf_net452
*333 clknet_1_0__leaf_net454
*334 clknet_1_0__leaf_net457
*335 clknet_1_0__leaf_net458
*336 clknet_1_0__leaf_net459
*337 clknet_1_0__leaf_net463
*338 clknet_1_0__leaf_net466
*339 clknet_1_0__leaf_net482
*340 clknet_1_0__leaf_net483
*341 clknet_1_0__leaf_net492
*342 clknet_1_0__leaf_net571
*343 clknet_1_0__leaf_net577
*344 clknet_1_0__leaf_net609
*345 clknet_1_0__leaf_net610
*346 clknet_1_0__leaf_net630
*347 clknet_1_0__leaf_net631
*348 clknet_1_0__leaf_net632
*349 clknet_1_0__leaf_net651
*350 clknet_1_0__leaf_net652
*351 clknet_1_0__leaf_net653
*352 clknet_1_0__leaf_net671
*353 clknet_1_0__leaf_net672
*354 clknet_1_0__leaf_net673
*355 clknet_1_0__leaf_net691
*356 clknet_1_0__leaf_net692
*357 clknet_1_0__leaf_net693
*358 clknet_1_0__leaf_net711
*359 clknet_1_0__leaf_net712
*360 clknet_1_0__leaf_net713
*361 clknet_1_0__leaf_net78
*362 clknet_1_0__leaf_net834
*363 clknet_1_0__leaf_net836
*364 clknet_1_0__leaf_net84
*365 clknet_1_0__leaf_net844
*366 clknet_1_0__leaf_net851
*367 clknet_1_0__leaf_net853
*368 clknet_1_0__leaf_net855
*369 clknet_1_0__leaf_net86
*370 clknet_1_0__leaf_net860
*371 clknet_1_0__leaf_net866
*372 clknet_1_0__leaf_net868
*373 clknet_1_0__leaf_net875
*374 clknet_1_0__leaf_net93
*375 clknet_1_0__leaf_net96
*376 clknet_1_1__leaf_net155
*377 clknet_1_1__leaf_net173
*378 clknet_1_1__leaf_net174
*379 clknet_1_1__leaf_net176
*380 clknet_1_1__leaf_net177
*381 clknet_1_1__leaf_net180
*382 clknet_1_1__leaf_net183
*383 clknet_1_1__leaf_net189
*384 clknet_1_1__leaf_net250
*385 clknet_1_1__leaf_net276
*386 clknet_1_1__leaf_net281
*387 clknet_1_1__leaf_net290
*388 clknet_1_1__leaf_net292
*389 clknet_1_1__leaf_net296
*390 clknet_1_1__leaf_net315
*391 clknet_1_1__leaf_net316
*392 clknet_1_1__leaf_net317
*393 clknet_1_1__leaf_net318
*394 clknet_1_1__leaf_net321
*395 clknet_1_1__leaf_net338
*396 clknet_1_1__leaf_net343
*397 clknet_1_1__leaf_net345
*398 clknet_1_1__leaf_net349
*399 clknet_1_1__leaf_net355
*400 clknet_1_1__leaf_net359
*401 clknet_1_1__leaf_net367
*402 clknet_1_1__leaf_net371
*403 clknet_1_1__leaf_net385
*404 clknet_1_1__leaf_net386
*405 clknet_1_1__leaf_net389
*406 clknet_1_1__leaf_net400
*407 clknet_1_1__leaf_net426
*408 clknet_1_1__leaf_net428
*409 clknet_1_1__leaf_net429
*410 clknet_1_1__leaf_net435
*411 clknet_1_1__leaf_net437
*412 clknet_1_1__leaf_net440
*413 clknet_1_1__leaf_net444
*414 clknet_1_1__leaf_net448
*415 clknet_1_1__leaf_net450
*416 clknet_1_1__leaf_net451
*417 clknet_1_1__leaf_net452
*418 clknet_1_1__leaf_net454
*419 clknet_1_1__leaf_net457
*420 clknet_1_1__leaf_net458
*421 clknet_1_1__leaf_net459
*422 clknet_1_1__leaf_net463
*423 clknet_1_1__leaf_net466
*424 clknet_1_1__leaf_net482
*425 clknet_1_1__leaf_net483
*426 clknet_1_1__leaf_net492
*427 clknet_1_1__leaf_net571
*428 clknet_1_1__leaf_net577
*429 clknet_1_1__leaf_net609
*430 clknet_1_1__leaf_net610
*431 clknet_1_1__leaf_net630
*432 clknet_1_1__leaf_net631
*433 clknet_1_1__leaf_net632
*434 clknet_1_1__leaf_net651
*435 clknet_1_1__leaf_net652
*436 clknet_1_1__leaf_net653
*437 clknet_1_1__leaf_net671
*438 clknet_1_1__leaf_net672
*439 clknet_1_1__leaf_net673
*440 clknet_1_1__leaf_net691
*441 clknet_1_1__leaf_net692
*442 clknet_1_1__leaf_net693
*443 clknet_1_1__leaf_net711
*444 clknet_1_1__leaf_net712
*445 clknet_1_1__leaf_net713
*446 clknet_1_1__leaf_net78
*447 clknet_1_1__leaf_net834
*448 clknet_1_1__leaf_net836
*449 clknet_1_1__leaf_net84
*450 clknet_1_1__leaf_net844
*451 clknet_1_1__leaf_net851
*452 clknet_1_1__leaf_net853
*453 clknet_1_1__leaf_net855
*454 clknet_1_1__leaf_net86
*455 clknet_1_1__leaf_net860
*456 clknet_1_1__leaf_net866
*457 clknet_1_1__leaf_net868
*458 clknet_1_1__leaf_net875
*459 clknet_1_1__leaf_net93
*460 clknet_1_1__leaf_net96
*461 clknet_4_0_0_clk
*462 clknet_4_10_0_clk
*463 clknet_4_11_0_clk
*464 clknet_4_12_0_clk
*465 clknet_4_13_0_clk
*466 clknet_4_14_0_clk
*467 clknet_4_15_0_clk
*468 clknet_4_1_0_clk
*469 clknet_4_2_0_clk
*470 clknet_4_3_0_clk
*471 clknet_4_4_0_clk
*472 clknet_4_5_0_clk
*473 clknet_4_6_0_clk
*474 clknet_4_7_0_clk
*475 clknet_4_8_0_clk
*476 clknet_4_9_0_clk
*477 net0
*478 net1
*479 net10
*480 net100
*481 net1000
*482 net1001
*483 net1002
*484 net1003
*485 net1004
*486 net1005
*487 net1006
*488 net1007
*489 net1008
*490 net1009
*491 net101
*492 net1010
*493 net1011
*494 net1012
*495 net1013
*496 net1014
*497 net1015
*498 net1016
*499 net1017
*500 net1018
*501 net1019
*502 net102
*503 net1020
*504 net1021
*505 net1022
*506 net1023
*507 net1024
*508 net1025
*509 net1026
*510 net1027
*511 net1028
*512 net1029
*513 net103
*514 net1030
*515 net1031
*516 net1032
*517 net1033
*518 net1034
*519 net1035
*520 net1036
*521 net1037
*522 net1038
*523 net1039
*524 net104
*525 net1040
*526 net1041
*527 net1042
*528 net1043
*529 net1044
*530 net1045
*531 net1046
*532 net1047
*533 net1048
*534 net1049
*535 net105
*536 net1050
*537 net1051
*538 net1052
*539 net1053
*540 net1054
*541 net1055
*542 net1056
*543 net1057
*544 net1058
*545 net1059
*546 net106
*547 net1060
*548 net1061
*549 net1062
*550 net1063
*551 net1064
*552 net1065
*553 net1066
*554 net1067
*555 net1068
*556 net1069
*557 net107
*558 net1070
*559 net1071
*560 net1072
*561 net1073
*562 net1074
*563 net1075
*564 net1076
*565 net1077
*566 net1078
*567 net1079
*568 net108
*569 net1080
*570 net1081
*571 net1082
*572 net1083
*573 net1084
*574 net1085
*575 net1086
*576 net1087
*577 net1088
*578 net1089
*579 net109
*580 net1090
*581 net11
*582 net110
*583 net111
*584 net112
*585 net113
*586 net114
*587 net115
*588 net116
*589 net117
*590 net118
*591 net119
*592 net12
*593 net120
*594 net121
*595 net122
*596 net123
*597 net124
*598 net125
*599 net126
*600 net127
*601 net128
*602 net129
*603 net13
*604 net130
*605 net131
*606 net132
*607 net133
*608 net134
*609 net135
*610 net136
*611 net137
*612 net138
*613 net139
*614 net14
*615 net140
*616 net141
*617 net142
*618 net143
*619 net144
*620 net145
*621 net146
*622 net147
*623 net148
*624 net149
*625 net15
*626 net150
*627 net151
*628 net152
*629 net153
*630 net154
*631 net155
*632 net156
*633 net157
*634 net158
*635 net159
*636 net16
*637 net160
*638 net161
*639 net162
*640 net163
*641 net164
*642 net165
*643 net166
*644 net167
*645 net168
*646 net169
*647 net17
*648 net170
*649 net171
*650 net172
*651 net173
*652 net174
*653 net175
*654 net176
*655 net177
*656 net178
*657 net179
*658 net18
*659 net180
*660 net181
*661 net182
*662 net183
*663 net184
*664 net185
*665 net186
*666 net187
*667 net188
*668 net189
*669 net19
*670 net190
*671 net191
*672 net192
*673 net193
*674 net194
*675 net195
*676 net196
*677 net197
*678 net198
*679 net199
*680 net2
*681 net20
*682 net200
*683 net201
*684 net202
*685 net203
*686 net204
*687 net205
*688 net206
*689 net207
*690 net208
*691 net209
*692 net21
*693 net210
*694 net211
*695 net212
*696 net213
*697 net214
*698 net215
*699 net216
*700 net217
*701 net218
*702 net219
*703 net22
*704 net220
*705 net221
*706 net222
*707 net223
*708 net224
*709 net225
*710 net226
*711 net227
*712 net228
*713 net229
*714 net23
*715 net230
*716 net231
*717 net232
*718 net233
*719 net234
*720 net235
*721 net236
*722 net237
*723 net238
*724 net239
*725 net24
*726 net240
*727 net241
*728 net242
*729 net243
*730 net244
*731 net245
*732 net246
*733 net247
*734 net248
*735 net249
*736 net25
*737 net250
*738 net251
*739 net252
*740 net253
*741 net254
*742 net255
*743 net256
*744 net257
*745 net258
*746 net259
*747 net26
*748 net260
*749 net261
*750 net262
*751 net263
*752 net264
*753 net265
*754 net266
*755 net267
*756 net268
*757 net269
*758 net27
*759 net270
*760 net271
*761 net272
*762 net273
*763 net274
*764 net275
*765 net276
*766 net277
*767 net278
*768 net279
*769 net28
*770 net280
*771 net281
*772 net282
*773 net283
*774 net284
*775 net285
*776 net286
*777 net287
*778 net288
*779 net289
*780 net29
*781 net290
*782 net291
*783 net292
*784 net293
*785 net294
*786 net295
*787 net296
*788 net297
*789 net298
*790 net299
*791 net3
*792 net30
*793 net300
*794 net301
*795 net302
*796 net303
*797 net304
*798 net305
*799 net306
*800 net307
*801 net308
*802 net309
*803 net31
*804 net310
*805 net311
*806 net312
*807 net313
*808 net314
*809 net315
*810 net316
*811 net317
*812 net318
*813 net319
*814 net32
*815 net320
*816 net321
*817 net322
*818 net323
*819 net324
*820 net325
*821 net326
*822 net327
*823 net328
*824 net329
*825 net33
*826 net330
*827 net331
*828 net332
*829 net333
*830 net334
*831 net335
*832 net336
*833 net337
*834 net338
*835 net339
*836 net34
*837 net340
*838 net341
*839 net342
*840 net343
*841 net344
*842 net345
*843 net346
*844 net347
*845 net348
*846 net349
*847 net35
*848 net350
*849 net351
*850 net352
*851 net353
*852 net354
*853 net355
*854 net356
*855 net357
*856 net358
*857 net359
*858 net36
*859 net360
*860 net361
*861 net362
*862 net363
*863 net364
*864 net365
*865 net366
*866 net367
*867 net368
*868 net369
*869 net37
*870 net370
*871 net371
*872 net372
*873 net373
*874 net374
*875 net375
*876 net376
*877 net377
*878 net378
*879 net379
*880 net38
*881 net380
*882 net381
*883 net382
*884 net383
*885 net384
*886 net385
*887 net386
*888 net387
*889 net388
*890 net389
*891 net39
*892 net390
*893 net391
*894 net392
*895 net393
*896 net394
*897 net395
*898 net396
*899 net397
*900 net398
*901 net399
*902 net4
*903 net40
*904 net400
*905 net401
*906 net402
*907 net403
*908 net404
*909 net405
*910 net406
*911 net407
*912 net408
*913 net409
*914 net41
*915 net410
*916 net411
*917 net412
*918 net413
*919 net414
*920 net415
*921 net416
*922 net417
*923 net418
*924 net419
*925 net42
*926 net420
*927 net421
*928 net422
*929 net423
*930 net424
*931 net425
*932 net426
*933 net427
*934 net428
*935 net429
*936 net43
*937 net430
*938 net431
*939 net432
*940 net433
*941 net434
*942 net435
*943 net436
*944 net437
*945 net438
*946 net439
*947 net44
*948 net440
*949 net441
*950 net442
*951 net443
*952 net444
*953 net445
*954 net446
*955 net447
*956 net448
*957 net449
*958 net45
*959 net450
*960 net451
*961 net452
*962 net453
*963 net454
*964 net455
*965 net456
*966 net457
*967 net458
*968 net459
*969 net46
*970 net460
*971 net461
*972 net462
*973 net463
*974 net464
*975 net465
*976 net466
*977 net467
*978 net468
*979 net469
*980 net47
*981 net470
*982 net471
*983 net472
*984 net473
*985 net474
*986 net475
*987 net476
*988 net477
*989 net478
*990 net479
*991 net48
*992 net480
*993 net481
*994 net482
*995 net483
*996 net484
*997 net485
*998 net486
*999 net487
*1000 net488
*1001 net489
*1002 net49
*1003 net490
*1004 net491
*1005 net492
*1006 net493
*1007 net494
*1008 net495
*1009 net496
*1010 net497
*1011 net498
*1012 net499
*1013 net5
*1014 net50
*1015 net500
*1016 net501
*1017 net502
*1018 net503
*1019 net504
*1020 net505
*1021 net506
*1022 net507
*1023 net508
*1024 net509
*1025 net51
*1026 net510
*1027 net511
*1028 net512
*1029 net513
*1030 net514
*1031 net515
*1032 net516
*1033 net517
*1034 net518
*1035 net519
*1036 net52
*1037 net520
*1038 net521
*1039 net522
*1040 net523
*1041 net524
*1042 net525
*1043 net526
*1044 net527
*1045 net528
*1046 net529
*1047 net53
*1048 net530
*1049 net531
*1050 net532
*1051 net533
*1052 net534
*1053 net535
*1054 net536
*1055 net537
*1056 net538
*1057 net539
*1058 net54
*1059 net540
*1060 net541
*1061 net542
*1062 net543
*1063 net544
*1064 net545
*1065 net546
*1066 net547
*1067 net548
*1068 net549
*1069 net55
*1070 net550
*1071 net551
*1072 net552
*1073 net553
*1074 net554
*1075 net555
*1076 net556
*1077 net557
*1078 net558
*1079 net559
*1080 net56
*1081 net560
*1082 net561
*1083 net562
*1084 net563
*1085 net564
*1086 net565
*1087 net566
*1088 net567
*1089 net568
*1090 net569
*1091 net57
*1092 net570
*1093 net571
*1094 net572
*1095 net573
*1096 net574
*1097 net575
*1098 net576
*1099 net577
*1100 net578
*1101 net579
*1102 net58
*1103 net580
*1104 net581
*1105 net582
*1106 net583
*1107 net584
*1108 net585
*1109 net586
*1110 net587
*1111 net588
*1112 net589
*1113 net59
*1114 net590
*1115 net591
*1116 net592
*1117 net593
*1118 net594
*1119 net595
*1120 net596
*1121 net597
*1122 net598
*1123 net599
*1124 net6
*1125 net60
*1126 net600
*1127 net601
*1128 net602
*1129 net603
*1130 net604
*1131 net605
*1132 net606
*1133 net607
*1134 net608
*1135 net609
*1136 net61
*1137 net610
*1138 net611
*1139 net612
*1140 net613
*1141 net614
*1142 net615
*1143 net616
*1144 net617
*1145 net618
*1146 net619
*1147 net62
*1148 net620
*1149 net621
*1150 net622
*1151 net623
*1152 net624
*1153 net625
*1154 net626
*1155 net627
*1156 net628
*1157 net629
*1158 net63
*1159 net630
*1160 net631
*1161 net632
*1162 net633
*1163 net634
*1164 net635
*1165 net636
*1166 net637
*1167 net638
*1168 net639
*1169 net64
*1170 net640
*1171 net641
*1172 net642
*1173 net643
*1174 net644
*1175 net645
*1176 net646
*1177 net647
*1178 net648
*1179 net649
*1180 net65
*1181 net650
*1182 net651
*1183 net652
*1184 net653
*1185 net654
*1186 net655
*1187 net656
*1188 net657
*1189 net658
*1190 net659
*1191 net66
*1192 net660
*1193 net661
*1194 net662
*1195 net663
*1196 net664
*1197 net665
*1198 net666
*1199 net667
*1200 net668
*1201 net669
*1202 net67
*1203 net670
*1204 net671
*1205 net672
*1206 net673
*1207 net674
*1208 net675
*1209 net676
*1210 net677
*1211 net678
*1212 net679
*1213 net68
*1214 net680
*1215 net681
*1216 net682
*1217 net683
*1218 net684
*1219 net685
*1220 net686
*1221 net687
*1222 net688
*1223 net689
*1224 net69
*1225 net690
*1226 net691
*1227 net692
*1228 net693
*1229 net694
*1230 net695
*1231 net696
*1232 net697
*1233 net698
*1234 net699
*1235 net7
*1236 net70
*1237 net700
*1238 net701
*1239 net702
*1240 net703
*1241 net704
*1242 net705
*1243 net706
*1244 net707
*1245 net708
*1246 net709
*1247 net71
*1248 net710
*1249 net711
*1250 net712
*1251 net713
*1252 net714
*1253 net715
*1254 net716
*1255 net717
*1256 net718
*1257 net719
*1258 net72
*1259 net720
*1260 net721
*1261 net722
*1262 net723
*1263 net724
*1264 net725
*1265 net726
*1266 net727
*1267 net728
*1268 net729
*1269 net73
*1270 net730
*1271 net731
*1272 net732
*1273 net733
*1274 net734
*1275 net735
*1276 net736
*1277 net737
*1278 net738
*1279 net739
*1280 net74
*1281 net740
*1282 net741
*1283 net742
*1284 net743
*1285 net744
*1286 net745
*1287 net746
*1288 net747
*1289 net748
*1290 net749
*1291 net75
*1292 net750
*1293 net751
*1294 net752
*1295 net753
*1296 net754
*1297 net755
*1298 net756
*1299 net757
*1300 net758
*1301 net759
*1302 net76
*1303 net760
*1304 net761
*1305 net762
*1306 net763
*1307 net764
*1308 net765
*1309 net766
*1310 net767
*1311 net768
*1312 net769
*1313 net77
*1314 net770
*1315 net771
*1316 net772
*1317 net773
*1318 net774
*1319 net775
*1320 net776
*1321 net777
*1322 net778
*1323 net779
*1324 net78
*1325 net780
*1326 net781
*1327 net782
*1328 net783
*1329 net784
*1330 net785
*1331 net786
*1332 net787
*1333 net788
*1334 net789
*1335 net79
*1336 net790
*1337 net791
*1338 net792
*1339 net793
*1340 net794
*1341 net795
*1342 net796
*1343 net797
*1344 net798
*1345 net799
*1346 net8
*1347 net80
*1348 net800
*1349 net801
*1350 net802
*1351 net803
*1352 net804
*1353 net805
*1354 net806
*1355 net807
*1356 net808
*1357 net809
*1358 net81
*1359 net810
*1360 net811
*1361 net812
*1362 net813
*1363 net814
*1364 net815
*1365 net816
*1366 net817
*1367 net818
*1368 net819
*1369 net82
*1370 net820
*1371 net821
*1372 net822
*1373 net823
*1374 net824
*1375 net825
*1376 net826
*1377 net827
*1378 net828
*1379 net829
*1380 net83
*1381 net830
*1382 net831
*1383 net832
*1384 net833
*1385 net834
*1386 net835
*1387 net836
*1388 net837
*1389 net838
*1390 net839
*1391 net84
*1392 net840
*1393 net841
*1394 net842
*1395 net843
*1396 net844
*1397 net845
*1398 net846
*1399 net847
*1400 net848
*1401 net849
*1402 net85
*1403 net850
*1404 net851
*1405 net852
*1406 net853
*1407 net854
*1408 net855
*1409 net856
*1410 net857
*1411 net858
*1412 net859
*1413 net86
*1414 net860
*1415 net861
*1416 net862
*1417 net863
*1418 net864
*1419 net865
*1420 net866
*1421 net867
*1422 net868
*1423 net869
*1424 net87
*1425 net870
*1426 net871
*1427 net872
*1428 net873
*1429 net874
*1430 net875
*1431 net876
*1432 net877
*1433 net878
*1434 net879
*1435 net88
*1436 net880
*1437 net881
*1438 net882
*1439 net883
*1440 net884
*1441 net885
*1442 net886
*1443 net887
*1444 net888
*1445 net889
*1446 net89
*1447 net890
*1448 net891
*1449 net892
*1450 net893
*1451 net894
*1452 net895
*1453 net896
*1454 net897
*1455 net898
*1456 net899
*1457 net9
*1458 net90
*1459 net900
*1460 net901
*1461 net902
*1462 net903
*1463 net904
*1464 net905
*1465 net906
*1466 net907
*1467 net908
*1468 net909
*1469 net91
*1470 net910
*1471 net911
*1472 net912
*1473 net913
*1474 net914
*1475 net915
*1476 net916
*1477 net917
*1478 net918
*1479 net919
*1480 net92
*1481 net920
*1482 net921
*1483 net922
*1484 net923
*1485 net924
*1486 net925
*1487 net926
*1488 net927
*1489 net928
*1490 net929
*1491 net93
*1492 net930
*1493 net931
*1494 net932
*1495 net933
*1496 net934
*1497 net935
*1498 net936
*1499 net937
*1500 net938
*1501 net939
*1502 net94
*1503 net940
*1504 net941
*1505 net942
*1506 net943
*1507 net944
*1508 net945
*1509 net946
*1510 net947
*1511 net948
*1512 net949
*1513 net95
*1514 net950
*1515 net951
*1516 net952
*1517 net953
*1518 net954
*1519 net955
*1520 net956
*1521 net957
*1522 net958
*1523 net959
*1524 net96
*1525 net960
*1526 net961
*1527 net962
*1528 net963
*1529 net964
*1530 net965
*1531 net966
*1532 net967
*1533 net968
*1534 net969
*1535 net97
*1536 net970
*1537 net971
*1538 net972
*1539 net973
*1540 net974
*1541 net975
*1542 net976
*1543 net977
*1544 net978
*1545 net979
*1546 net98
*1547 net980
*1548 net981
*1549 net982
*1550 net983
*1551 net984
*1552 net985
*1553 net986
*1554 net987
*1555 net988
*1556 net989
*1557 net99
*1558 net990
*1559 net991
*1560 net992
*1561 net993
*1562 net994
*1563 net995
*1564 net996
*1565 net997
*1566 net998
*1567 net999
*1568 ANTENNA_c100_A0
*1569 ANTENNA_c100_A2
*1570 ANTENNA_c100_S0
*1571 ANTENNA_c100_S1
*1572 ANTENNA_c101_A3
*1573 ANTENNA_c101_X
*1574 ANTENNA_c102_A0
*1575 ANTENNA_c102_A1
*1576 ANTENNA_c102_S0
*1577 ANTENNA_c102_S1
*1578 ANTENNA_c102_X
*1579 ANTENNA_c103_A1
*1580 ANTENNA_c103_A2
*1581 ANTENNA_c103_S0
*1582 ANTENNA_c103_S1
*1583 ANTENNA_c104_A1
*1584 ANTENNA_c104_A2
*1585 ANTENNA_c104_A3
*1586 ANTENNA_c104_S0
*1587 ANTENNA_c104_X
*1588 ANTENNA_c105_A2
*1589 ANTENNA_c105_A3
*1590 ANTENNA_c105_S0
*1591 ANTENNA_c106_A1
*1592 ANTENNA_c106_A2
*1593 ANTENNA_c106_A3
*1594 ANTENNA_c106_S1
*1595 ANTENNA_c107_A1
*1596 ANTENNA_c107_A2
*1597 ANTENNA_c107_A3
*1598 ANTENNA_c107_S0
*1599 ANTENNA_c107_S1
*1600 ANTENNA_c108_A1
*1601 ANTENNA_c108_A3
*1602 ANTENNA_c109_S0
*1603 ANTENNA_c109_S1
*1604 ANTENNA_c122_A1
*1605 ANTENNA_c122_A2
*1606 ANTENNA_c122_A3
*1607 ANTENNA_c122_S0
*1608 ANTENNA_c123_A0
*1609 ANTENNA_c123_A2
*1610 ANTENNA_c123_S0
*1611 ANTENNA_c124_A0
*1612 ANTENNA_c124_A1
*1613 ANTENNA_c124_A2
*1614 ANTENNA_c124_A3
*1615 ANTENNA_c124_S0
*1616 ANTENNA_c124_S1
*1617 ANTENNA_c125_A2
*1618 ANTENNA_c125_S1
*1619 ANTENNA_c126_S1
*1620 ANTENNA_c127_A0
*1621 ANTENNA_c128_A2
*1622 ANTENNA_c128_S0
*1623 ANTENNA_c129_A0
*1624 ANTENNA_c129_A1
*1625 ANTENNA_c129_S0
*1626 ANTENNA_c130_A1
*1627 ANTENNA_c130_A3
*1628 ANTENNA_c131_S1
*1629 ANTENNA_c132_A1
*1630 ANTENNA_c132_A2
*1631 ANTENNA_c132_B1
*1632 ANTENNA_c132_C1
*1633 ANTENNA_c132_D1
*1634 ANTENNA_c132_X
*1635 ANTENNA_c133_A1
*1636 ANTENNA_c133_A2
*1637 ANTENNA_c133_B1
*1638 ANTENNA_c133_C1
*1639 ANTENNA_c133_D1
*1640 ANTENNA_c134_A1
*1641 ANTENNA_c134_A2
*1642 ANTENNA_c134_B1
*1643 ANTENNA_c134_C1
*1644 ANTENNA_c134_X
*1645 ANTENNA_c135_A1
*1646 ANTENNA_c135_A2
*1647 ANTENNA_c135_B1
*1648 ANTENNA_c135_D1
*1649 ANTENNA_c136_A0
*1650 ANTENNA_c136_A1
*1651 ANTENNA_c136_A2
*1652 ANTENNA_c136_A3
*1653 ANTENNA_c136_S1
*1654 ANTENNA_c136_X
*1655 ANTENNA_c137_A1
*1656 ANTENNA_c137_A2
*1657 ANTENNA_c137_B1
*1658 ANTENNA_c137_C1
*1659 ANTENNA_c137_D1
*1660 ANTENNA_c137_X
*1661 ANTENNA_c138_A1
*1662 ANTENNA_c138_A2
*1663 ANTENNA_c138_B1
*1664 ANTENNA_c138_C1
*1665 ANTENNA_c138_D1
*1666 ANTENNA_c139_A1
*1667 ANTENNA_c139_B1
*1668 ANTENNA_c139_C1
*1669 ANTENNA_c139_D1
*1670 ANTENNA_c139_X
*1671 ANTENNA_c140_A1
*1672 ANTENNA_c140_A2
*1673 ANTENNA_c140_B1
*1674 ANTENNA_c140_C1
*1675 ANTENNA_c140_D1
*1676 ANTENNA_c140_X
*1677 ANTENNA_c141_B1
*1678 ANTENNA_c141_C1
*1679 ANTENNA_c141_D1
*1680 ANTENNA_c141_X
*1681 ANTENNA_c142_A1
*1682 ANTENNA_c142_A2
*1683 ANTENNA_c142_C1
*1684 ANTENNA_c142_D1
*1685 ANTENNA_c143_B1
*1686 ANTENNA_c143_C1
*1687 ANTENNA_c143_D1
*1688 ANTENNA_c144_A2
*1689 ANTENNA_c144_A3
*1690 ANTENNA_c144_S0
*1691 ANTENNA_c144_S1
*1692 ANTENNA_c144_X
*1693 ANTENNA_c145_A0
*1694 ANTENNA_c145_A1
*1695 ANTENNA_c145_A2
*1696 ANTENNA_c145_A3
*1697 ANTENNA_c145_S0
*1698 ANTENNA_c145_X
*1699 ANTENNA_c146_A1
*1700 ANTENNA_c146_A2
*1701 ANTENNA_c147_A1
*1702 ANTENNA_c147_C1
*1703 ANTENNA_c147_D1
*1704 ANTENNA_c147_X
*1705 ANTENNA_c148_A1
*1706 ANTENNA_c148_X
*1707 ANTENNA_c149_A2
*1708 ANTENNA_c149_B1
*1709 ANTENNA_c149_D1
*1710 ANTENNA_c150_A1
*1711 ANTENNA_c150_A2
*1712 ANTENNA_c150_C1
*1713 ANTENNA_c150_X
*1714 ANTENNA_c151_S0
*1715 ANTENNA_c151_S1
*1716 ANTENNA_c151_X
*1717 ANTENNA_c152_A0
*1718 ANTENNA_c152_A2
*1719 ANTENNA_c152_A3
*1720 ANTENNA_c152_S0
*1721 ANTENNA_c152_S1
*1722 ANTENNA_c153_A0
*1723 ANTENNA_c153_A2
*1724 ANTENNA_c153_A3
*1725 ANTENNA_c153_S0
*1726 ANTENNA_c154_A2
*1727 ANTENNA_c154_B1
*1728 ANTENNA_c154_C1
*1729 ANTENNA_c154_D1
*1730 ANTENNA_c154_X
*1731 ANTENNA_c155_A1
*1732 ANTENNA_c155_A2
*1733 ANTENNA_c155_B1
*1734 ANTENNA_c155_C1
*1735 ANTENNA_c155_D1
*1736 ANTENNA_c155_X
*1737 ANTENNA_c156_A1
*1738 ANTENNA_c156_A2
*1739 ANTENNA_c156_B1
*1740 ANTENNA_c156_C1
*1741 ANTENNA_c156_D1
*1742 ANTENNA_c157_A1
*1743 ANTENNA_c157_B1
*1744 ANTENNA_c157_C1
*1745 ANTENNA_c157_D1
*1746 ANTENNA_c157_X
*1747 ANTENNA_c158_A1
*1748 ANTENNA_c158_B1
*1749 ANTENNA_c158_D1
*1750 ANTENNA_c159_A1
*1751 ANTENNA_c159_C1
*1752 ANTENNA_c159_D1
*1753 ANTENNA_c160_A1
*1754 ANTENNA_c160_A2
*1755 ANTENNA_c160_X
*1756 ANTENNA_c161_A0
*1757 ANTENNA_c161_A2
*1758 ANTENNA_c161_S0
*1759 ANTENNA_c162_A1
*1760 ANTENNA_c162_A2
*1761 ANTENNA_c162_B1
*1762 ANTENNA_c162_C1
*1763 ANTENNA_c162_D1
*1764 ANTENNA_c163_A1
*1765 ANTENNA_c163_A2
*1766 ANTENNA_c163_A3
*1767 ANTENNA_c163_S0
*1768 ANTENNA_c163_S1
*1769 ANTENNA_c164_A1
*1770 ANTENNA_c164_C1
*1771 ANTENNA_c165_A1
*1772 ANTENNA_c165_A2
*1773 ANTENNA_c165_X
*1774 ANTENNA_c166_A1
*1775 ANTENNA_c166_A2
*1776 ANTENNA_c166_A3
*1777 ANTENNA_c166_S0
*1778 ANTENNA_c166_S1
*1779 ANTENNA_c167_A1
*1780 ANTENNA_c167_A2
*1781 ANTENNA_c167_C1
*1782 ANTENNA_c167_X
*1783 ANTENNA_c168_A0
*1784 ANTENNA_c168_A2
*1785 ANTENNA_c168_A3
*1786 ANTENNA_c168_S0
*1787 ANTENNA_c168_S1
*1788 ANTENNA_c168_X
*1789 ANTENNA_c169_A0
*1790 ANTENNA_c169_A1
*1791 ANTENNA_c169_A2
*1792 ANTENNA_c169_A3
*1793 ANTENNA_c169_S0
*1794 ANTENNA_c169_S1
*1795 ANTENNA_c169_X
*1796 ANTENNA_c170_A0
*1797 ANTENNA_c170_A1
*1798 ANTENNA_c170_A2
*1799 ANTENNA_c170_S0
*1800 ANTENNA_c170_S1
*1801 ANTENNA_c170_X
*1802 ANTENNA_c171_A0
*1803 ANTENNA_c171_A2
*1804 ANTENNA_c171_A3
*1805 ANTENNA_c171_S0
*1806 ANTENNA_c171_S1
*1807 ANTENNA_c171_X
*1808 ANTENNA_c172_A0
*1809 ANTENNA_c172_A1
*1810 ANTENNA_c172_A2
*1811 ANTENNA_c172_A3
*1812 ANTENNA_c172_S0
*1813 ANTENNA_c172_S1
*1814 ANTENNA_c173_A0
*1815 ANTENNA_c173_A1
*1816 ANTENNA_c173_A3
*1817 ANTENNA_c173_S0
*1818 ANTENNA_c173_S1
*1819 ANTENNA_c174_A0
*1820 ANTENNA_c174_A1
*1821 ANTENNA_c174_A2
*1822 ANTENNA_c174_A3
*1823 ANTENNA_c174_S0
*1824 ANTENNA_c174_S1
*1825 ANTENNA_c175_A0
*1826 ANTENNA_c175_A1
*1827 ANTENNA_c175_A2
*1828 ANTENNA_c175_A3
*1829 ANTENNA_c175_S1
*1830 ANTENNA_c176_A1
*1831 ANTENNA_c176_A2
*1832 ANTENNA_c176_C1
*1833 ANTENNA_c176_D1
*1834 ANTENNA_c176_X
*1835 ANTENNA_c177_A0
*1836 ANTENNA_c177_A1
*1837 ANTENNA_c177_A2
*1838 ANTENNA_c177_A3
*1839 ANTENNA_c177_S0
*1840 ANTENNA_c177_S1
*1841 ANTENNA_c178_A1
*1842 ANTENNA_c178_A2
*1843 ANTENNA_c178_B1
*1844 ANTENNA_c178_C1
*1845 ANTENNA_c178_D1
*1846 ANTENNA_c178_X
*1847 ANTENNA_c179_A1
*1848 ANTENNA_c179_A2
*1849 ANTENNA_c179_B1
*1850 ANTENNA_c179_C1
*1851 ANTENNA_c179_D1
*1852 ANTENNA_c179_X
*1853 ANTENNA_c180_A0
*1854 ANTENNA_c180_A1
*1855 ANTENNA_c180_A2
*1856 ANTENNA_c180_A3
*1857 ANTENNA_c180_S0
*1858 ANTENNA_c180_S1
*1859 ANTENNA_c180_X
*1860 ANTENNA_c181_A0
*1861 ANTENNA_c181_A1
*1862 ANTENNA_c181_A2
*1863 ANTENNA_c181_A3
*1864 ANTENNA_c181_S0
*1865 ANTENNA_c181_S1
*1866 ANTENNA_c182_A1
*1867 ANTENNA_c182_A2
*1868 ANTENNA_c182_A3
*1869 ANTENNA_c182_S0
*1870 ANTENNA_c182_S1
*1871 ANTENNA_c182_X
*1872 ANTENNA_c183_A0
*1873 ANTENNA_c183_A1
*1874 ANTENNA_c183_A2
*1875 ANTENNA_c183_A3
*1876 ANTENNA_c183_S0
*1877 ANTENNA_c183_S1
*1878 ANTENNA_c184_A0
*1879 ANTENNA_c184_A1
*1880 ANTENNA_c184_A2
*1881 ANTENNA_c184_A3
*1882 ANTENNA_c184_S0
*1883 ANTENNA_c185_A2
*1884 ANTENNA_c185_B1