*SPEF "ieee 1481-1999"
*DESIGN "netlist_1"
*DATE "18:13:25 Wednesday August 14, 2024"
*VENDOR "The OpenROAD Project"
*PROGRAM "OpenROAD"
*VERSION "d423155d69de7f683a23f6916ead418a615ad4ad"
*DESIGN_FLOW "NAME_SCOPE LOCAL" "PIN_CAP NONE"
*DIVIDER /
*DELIMITER :
*BUS_DELIMITER []
*T_UNIT 1 NS
*C_UNIT 1 PF
*R_UNIT 1 OHM
*L_UNIT 1 HENRY

*NAME_MAP
*3 clk
*4 in0
*5 in1
*6 in10
*7 in11
*8 in12
*9 in13
*10 in14
*11 in15
*12 in16
*13 in17
*14 in18
*15 in19
*16 in2
*17 in20
*18 in21
*19 in22
*20 in23
*21 in24
*22 in25
*23 in26
*24 in27
*25 in28
*26 in29
*27 in3
*28 in30
*29 in31
*30 in32
*31 in33
*32 in34
*33 in35
*34 in36
*35 in37
*36 in38
*37 in39
*38 in4
*39 in40
*40 in41
*41 in42
*42 in43
*43 in44
*44 in45
*45 in46
*46 in47
*47 in48
*48 in49
*49 in5
*50 in50
*51 in51
*52 in52
*53 in53
*54 in54
*55 in55
*56 in56
*57 in57
*58 in58
*59 in59
*60 in6
*61 in60
*62 in61
*63 in62
*64 in63
*65 in64
*66 in65
*67 in66
*68 in67
*69 in68
*70 in69
*71 in7
*72 in70
*73 in71
*74 in72
*75 in73
*76 in74
*77 in75
*78 in76
*79 in77
*80 in78
*81 in79
*82 in8
*83 in80
*84 in81
*85 in82
*86 in83
*87 in84
*88 in85
*89 in86
*90 in87
*91 in88
*92 in89
*93 in9
*94 in90
*95 in91
*96 in92
*97 in93
*98 in94
*99 in95
*100 in96
*101 in97
*102 in98
*103 in99
*104 out0
*105 out1
*106 out10
*107 out11
*108 out12
*109 out13
*110 out14
*111 out15
*112 out16
*113 out17
*114 out18
*115 out19
*116 out2
*117 out20
*118 out21
*119 out22
*120 out23
*121 out24
*122 out25
*123 out26
*124 out27
*125 out28
*126 out29
*127 out3
*128 out30
*129 out31
*130 out32
*131 out33
*132 out34
*133 out35
*134 out36
*135 out37
*136 out38
*137 out39
*138 out4
*139 out40
*140 out41
*141 out42
*142 out43
*143 out44
*144 out45
*145 out46
*146 out47
*147 out48
*148 out49
*149 out5
*150 out50
*151 out51
*152 out52
*153 out53
*154 out54
*155 out55
*156 out56
*157 out57
*158 out58
*159 out59
*160 out6
*161 out60
*162 out61
*163 out62
*164 out63
*165 out64
*166 out65
*167 out66
*168 out67
*169 out68
*170 out69
*171 out7
*172 out70
*173 out71
*174 out72
*175 out73
*176 out74
*177 out75
*178 out76
*179 out77
*180 out78
*181 out79
*182 out8
*183 out80
*184 out81
*185 out82
*186 out83
*187 out84
*188 out85
*189 out86
*190 out87
*191 out88
*192 out89
*193 out9
*194 out90
*195 out91
*196 out92
*197 out93
*198 out94
*199 out95
*200 out96
*201 out97
*202 out98
*203 out99
*204 rst
*205 clknet_0_clk
*206 clknet_0_net159
*207 clknet_0_net161
*208 clknet_0_net162
*209 clknet_0_net166
*210 clknet_0_net178
*211 clknet_0_net179
*212 clknet_0_net198
*213 clknet_0_net199
*214 clknet_0_net200
*215 clknet_0_net255
*216 clknet_0_net268
*217 clknet_0_net276
*218 clknet_0_net277
*219 clknet_0_net281
*220 clknet_0_net282
*221 clknet_0_net289
*222 clknet_0_net295
*223 clknet_0_net300
*224 clknet_0_net301
*225 clknet_0_net305
*226 clknet_0_net367
*227 clknet_0_net370
*228 clknet_0_net375
*229 clknet_0_net400
*230 clknet_0_net473
*231 clknet_0_net475
*232 clknet_0_net512
*233 clknet_0_net614
*234 clknet_0_net615
*235 clknet_0_net742
*236 clknet_0_net766
*237 clknet_0_net769
*238 clknet_0_net786
*239 clknet_0_net793
*240 clknet_0_net799
*241 clknet_0_net800
*242 clknet_0_net97
*243 clknet_1_0__leaf_net159
*244 clknet_1_0__leaf_net161
*245 clknet_1_0__leaf_net162
*246 clknet_1_0__leaf_net166
*247 clknet_1_0__leaf_net178
*248 clknet_1_0__leaf_net179
*249 clknet_1_0__leaf_net198
*250 clknet_1_0__leaf_net199
*251 clknet_1_0__leaf_net200
*252 clknet_1_0__leaf_net255
*253 clknet_1_0__leaf_net268
*254 clknet_1_0__leaf_net276
*255 clknet_1_0__leaf_net277
*256 clknet_1_0__leaf_net281
*257 clknet_1_0__leaf_net282
*258 clknet_1_0__leaf_net289
*259 clknet_1_0__leaf_net295
*260 clknet_1_0__leaf_net300
*261 clknet_1_0__leaf_net301
*262 clknet_1_0__leaf_net305
*263 clknet_1_0__leaf_net367
*264 clknet_1_0__leaf_net370
*265 clknet_1_0__leaf_net375
*266 clknet_1_0__leaf_net400
*267 clknet_1_0__leaf_net473
*268 clknet_1_0__leaf_net475
*269 clknet_1_0__leaf_net512
*270 clknet_1_0__leaf_net614
*271 clknet_1_0__leaf_net615
*272 clknet_1_0__leaf_net742
*273 clknet_1_0__leaf_net766
*274 clknet_1_0__leaf_net769
*275 clknet_1_0__leaf_net786
*276 clknet_1_0__leaf_net793
*277 clknet_1_0__leaf_net799
*278 clknet_1_0__leaf_net800
*279 clknet_1_0__leaf_net97
*280 clknet_1_1__leaf_net159
*281 clknet_1_1__leaf_net161
*282 clknet_1_1__leaf_net162
*283 clknet_1_1__leaf_net166
*284 clknet_1_1__leaf_net178
*285 clknet_1_1__leaf_net179
*286 clknet_1_1__leaf_net198
*287 clknet_1_1__leaf_net199
*288 clknet_1_1__leaf_net200
*289 clknet_1_1__leaf_net255
*290 clknet_1_1__leaf_net268
*291 clknet_1_1__leaf_net276
*292 clknet_1_1__leaf_net277
*293 clknet_1_1__leaf_net281
*294 clknet_1_1__leaf_net282
*295 clknet_1_1__leaf_net289
*296 clknet_1_1__leaf_net295
*297 clknet_1_1__leaf_net300
*298 clknet_1_1__leaf_net301
*299 clknet_1_1__leaf_net305
*300 clknet_1_1__leaf_net367
*301 clknet_1_1__leaf_net370
*302 clknet_1_1__leaf_net375
*303 clknet_1_1__leaf_net400
*304 clknet_1_1__leaf_net473
*305 clknet_1_1__leaf_net475
*306 clknet_1_1__leaf_net512
*307 clknet_1_1__leaf_net614
*308 clknet_1_1__leaf_net615
*309 clknet_1_1__leaf_net742
*310 clknet_1_1__leaf_net766
*311 clknet_1_1__leaf_net769
*312 clknet_1_1__leaf_net786
*313 clknet_1_1__leaf_net793
*314 clknet_1_1__leaf_net799
*315 clknet_1_1__leaf_net800
*316 clknet_1_1__leaf_net97
*317 clknet_2_0__leaf_clk
*318 clknet_2_1__leaf_clk
*319 clknet_2_2__leaf_clk
*320 clknet_2_3__leaf_clk
*321 net0
*322 net1
*323 net10
*324 net100
*325 net101
*326 net102
*327 net103
*328 net104
*329 net105
*330 net106
*331 net107
*332 net108
*333 net109
*334 net11
*335 net110
*336 net111
*337 net112
*338 net113
*339 net114
*340 net115
*341 net116
*342 net117
*343 net118
*344 net119
*345 net12
*346 net120
*347 net121
*348 net122
*349 net123
*350 net124
*351 net125
*352 net126
*353 net127
*354 net128
*355 net129
*356 net13
*357 net130
*358 net131
*359 net132
*360 net133
*361 net134
*362 net135
*363 net136
*364 net137
*365 net138
*366 net139
*367 net14
*368 net140
*369 net141
*370 net142
*371 net143
*372 net144
*373 net145
*374 net146
*375 net147
*376 net148
*377 net149
*378 net15
*379 net150
*380 net151
*381 net152
*382 net153
*383 net154
*384 net155
*385 net156
*386 net157
*387 net158
*388 net159
*389 net16
*390 net160
*391 net161
*392 net162
*393 net163
*394 net164
*395 net165
*396 net166
*397 net167
*398 net168
*399 net169
*400 net17
*401 net170
*402 net171
*403 net172
*404 net173
*405 net174
*406 net175
*407 net176
*408 net177
*409 net178
*410 net179
*411 net18
*412 net180
*413 net181
*414 net182
*415 net183
*416 net184
*417 net185
*418 net186
*419 net187
*420 net188
*421 net189
*422 net19
*423 net190
*424 net191
*425 net192
*426 net193
*427 net194
*428 net195
*429 net196
*430 net197
*431 net198
*432 net199
*433 net2
*434 net20
*435 net200
*436 net201
*437 net202
*438 net203
*439 net204
*440 net205
*441 net206
*442 net207
*443 net208
*444 net209
*445 net21
*446 net210
*447 net211
*448 net212
*449 net213
*450 net214
*451 net215
*452 net216
*453 net217
*454 net218
*455 net219
*456 net22
*457 net220
*458 net221
*459 net222
*460 net223
*461 net224
*462 net225
*463 net226
*464 net227
*465 net228
*466 net229
*467 net23
*468 net230
*469 net231
*470 net232
*471 net233
*472 net234
*473 net235
*474 net236
*475 net237
*476 net238
*477 net239
*478 net24
*479 net240
*480 net241
*481 net242
*482 net243
*483 net244
*484 net245
*485 net246
*486 net247
*487 net248
*488 net249
*489 net25
*490 net250
*491 net251
*492 net252
*493 net253
*494 net254
*495 net255
*496 net256
*497 net257
*498 net258
*499 net259
*500 net26
*501 net260
*502 net261
*503 net262
*504 net263
*505 net264
*506 net265
*507 net266
*508 net267
*509 net268
*510 net269
*511 net27
*512 net270
*513 net271
*514 net272
*515 net273
*516 net274
*517 net275
*518 net276
*519 net277
*520 net278
*521 net279
*522 net28
*523 net280
*524 net281
*525 net282
*526 net283
*527 net284
*528 net285
*529 net286
*530 net287
*531 net288
*532 net289
*533 net29
*534 net290
*535 net291
*536 net292
*537 net293
*538 net294
*539 net295
*540 net296
*541 net297
*542 net298
*543 net299
*544 net3
*545 net30
*546 net300
*547 net301
*548 net302
*549 net303
*550 net304
*551 net305
*552 net306
*553 net307
*554 net308
*555 net309
*556 net31
*557 net310
*558 net311
*559 net312
*560 net313
*561 net314
*562 net315
*563 net316
*564 net317
*565 net318
*566 net319
*567 net32
*568 net320
*569 net321
*570 net322
*571 net323
*572 net324
*573 net325
*574 net326
*575 net327
*576 net328
*577 net329
*578 net33
*579 net330
*580 net331
*581 net332
*582 net333
*583 net334
*584 net335
*585 net336
*586 net337
*587 net338
*588 net339
*589 net34
*590 net340
*591 net341
*592 net342
*593 net343
*594 net344
*595 net345
*596 net346
*597 net347
*598 net348
*599 net349
*600 net35
*601 net350
*602 net351
*603 net352
*604 net353
*605 net354
*606 net355
*607 net356
*608 net357
*609 net358
*610 net359
*611 net36
*612 net360
*613 net361
*614 net362
*615 net363
*616 net364
*617 net365
*618 net366
*619 net367
*620 net368
*621 net369
*622 net37
*623 net370
*624 net371
*625 net372
*626 net373
*627 net374
*628 net375
*629 net376
*630 net377
*631 net378
*632 net379
*633 net38
*634 net380
*635 net381
*636 net382
*637 net383
*638 net384
*639 net385
*640 net386
*641 net387
*642 net388
*643 net389
*644 net39
*645 net390
*646 net391
*647 net392
*648 net393
*649 net394
*650 net395
*651 net396
*652 net397
*653 net398
*654 net399
*655 net4
*656 net40
*657 net400
*658 net401
*659 net402
*660 net403
*661 net404
*662 net405
*663 net406
*664 net407
*665 net408
*666 net409
*667 net41
*668 net410
*669 net411
*670 net412
*671 net413
*672 net414
*673 net415
*674 net416
*675 net417
*676 net418
*677 net419
*678 net42
*679 net420
*680 net421
*681 net422
*682 net423
*683 net424
*684 net425
*685 net426
*686 net427
*687 net428
*688 net429
*689 net43
*690 net430
*691 net431
*692 net432
*693 net433
*694 net434
*695 net435
*696 net436
*697 net437
*698 net438
*699 net439
*700 net44
*701 net440
*702 net441
*703 net442
*704 net443
*705 net444
*706 net445
*707 net446
*708 net447
*709 net448
*710 net449
*711 net45
*712 net450
*713 net451
*714 net452
*715 net453
*716 net454
*717 net455
*718 net456
*719 net457
*720 net458
*721 net459
*722 net46
*723 net460
*724 net461
*725 net462
*726 net463
*727 net464
*728 net465
*729 net466
*730 net467
*731 net468
*732 net469
*733 net47
*734 net470
*735 net471
*736 net472
*737 net473
*738 net474
*739 net475
*740 net476
*741 net477
*742 net478
*743 net479
*744 net48
*745 net480
*746 net481
*747 net482
*748 net483
*749 net484
*750 net485
*751 net486
*752 net487
*753 net488
*754 net489
*755 net49
*756 net490
*757 net491
*758 net492
*759 net493
*760 net494
*761 net495
*762 net496
*763 net497
*764 net498
*765 net499
*766 net5
*767 net50
*768 net500
*769 net501
*770 net502
*771 net503
*772 net504
*773 net505
*774 net506
*775 net507
*776 net508
*777 net509
*778 net51
*779 net510
*780 net511
*781 net512
*782 net513
*783 net514
*784 net515
*785 net516
*786 net517
*787 net518
*788 net519
*789 net52
*790 net520
*791 net521
*792 net522
*793 net523
*794 net524
*795 net525
*796 net526
*797 net527
*798 net528
*799 net529
*800 net53
*801 net530
*802 net531
*803 net532
*804 net533
*805 net534
*806 net535
*807 net536
*808 net537
*809 net538
*810 net539
*811 net54
*812 net540
*813 net541
*814 net542
*815 net543
*816 net544
*817 net545
*818 net546
*819 net547
*820 net548
*821 net549
*822 net55
*823 net550
*824 net551
*825 net552
*826 net553
*827 net554
*828 net555
*829 net556
*830 net557
*831 net558
*832 net559
*833 net56
*834 net560
*835 net561
*836 net562
*837 net563
*838 net564
*839 net565
*840 net566
*841 net567
*842 net568
*843 net569
*844 net57
*845 net570
*846 net571
*847 net572
*848 net573
*849 net574
*850 net575
*851 net576
*852 net577
*853 net578
*854 net579
*855 net58
*856 net580
*857 net581
*858 net582
*859 net583
*860 net584
*861 net585
*862 net586
*863 net587
*864 net588
*865 net589
*866 net59
*867 net590
*868 net591
*869 net592
*870 net593
*871 net594
*872 net595
*873 net596
*874 net597
*875 net598
*876 net599
*877 net6
*878 net60
*879 net600
*880 net601
*881 net602
*882 net603
*883 net604
*884 net605
*885 net606
*886 net607
*887 net608
*888 net609
*889 net61
*890 net610
*891 net611
*892 net612
*893 net613
*894 net614
*895 net615
*896 net616
*897 net617
*898 net618
*899 net619
*900 net62
*901 net620
*902 net621
*903 net622
*904 net623
*905 net624
*906 net625
*907 net626
*908 net627
*909 net628
*910 net629
*911 net63
*912 net630
*913 net631
*914 net632
*915 net633
*916 net634
*917 net635
*918 net636
*919 net637
*920 net638
*921 net639
*922 net64
*923 net640
*924 net641
*925 net642
*926 net643
*927 net644
*928 net645
*929 net646
*930 net647
*931 net648
*932 net649
*933 net65
*934 net650
*935 net651
*936 net652
*937 net653
*938 net654
*939 net655
*940 net656
*941 net657
*942 net658
*943 net659
*944 net66
*945 net660
*946 net661
*947 net662
*948 net663
*949 net664
*950 net665
*951 net666
*952 net667
*953 net668
*954 net669
*955 net67
*956 net670
*957 net671
*958 net672
*959 net673
*960 net674
*961 net675
*962 net676
*963 net677
*964 net678
*965 net679
*966 net68
*967 net680
*968 net681
*969 net682
*970 net683
*971 net684
*972 net685
*973 net686
*974 net687
*975 net688
*976 net689
*977 net69
*978 net690
*979 net691
*980 net692
*981 net693
*982 net694
*983 net695
*984 net696
*985 net697
*986 net698
*987 net699
*988 net7
*989 net70
*990 net700
*991 net701
*992 net702
*993 net703
*994 net704
*995 net705
*996 net706
*997 net707
*998 net708
*999 net709
*1000 net71
*1001 net710
*1002 net711
*1003 net712
*1004 net713
*1005 net714
*1006 net715
*1007 net716
*1008 net717
*1009 net718
*1010 net719
*1011 net72
*1012 net720
*1013 net721
*1014 net722
*1015 net723
*1016 net724
*1017 net725
*1018 net726
*1019 net727
*1020 net728
*1021 net729
*1022 net73
*1023 net730
*1024 net731
*1025 net732
*1026 net733
*1027 net734
*1028 net735
*1029 net736
*1030 net737
*1031 net738
*1032 net739
*1033 net74
*1034 net740
*1035 net741
*1036 net742
*1037 net743
*1038 net744
*1039 net745
*1040 net746
*1041 net747
*1042 net748
*1043 net749
*1044 net75
*1045 net750
*1046 net751
*1047 net752
*1048 net753
*1049 net754
*1050 net755
*1051 net756
*1052 net757
*1053 net758
*1054 net759
*1055 net76
*1056 net760
*1057 net761
*1058 net762
*1059 net763
*1060 net764
*1061 net765
*1062 net766
*1063 net767
*1064 net768
*1065 net769
*1066 net77
*1067 net770
*1068 net771
*1069 net772
*1070 net773
*1071 net774
*1072 net775
*1073 net776
*1074 net777
*1075 net778
*1076 net779
*1077 net78
*1078 net780
*1079 net781
*1080 net782
*1081 net783
*1082 net784
*1083 net785
*1084 net786
*1085 net787
*1086 net788
*1087 net789
*1088 net79
*1089 net790
*1090 net791
*1091 net792
*1092 net793
*1093 net794
*1094 net795
*1095 net796
*1096 net797
*1097 net798
*1098 net799
*1099 net8
*1100 net80
*1101 net800
*1102 net801
*1103 net802
*1104 net803
*1105 net804
*1106 net805
*1107 net806
*1108 net807
*1109 net808
*1110 net809
*1111 net81
*1112 net810
*1113 net811
*1114 net812
*1115 net813
*1116 net814
*1117 net815
*1118 net816
*1119 net817
*1120 net818
*1121 net819
*1122 net82
*1123 net820
*1124 net821
*1125 net822
*1126 net823
*1127 net824
*1128 net825
*1129 net826
*1130 net827
*1131 net828
*1132 net829
*1133 net83
*1134 net830
*1135 net831
*1136 net832
*1137 net833
*1138 net834
*1139 net835
*1140 net836
*1141 net837
*1142 net838
*1143 net839
*1144 net84
*1145 net840
*1146 net841
*1147 net842
*1148 net843
*1149 net844
*1150 net845
*1151 net846
*1152 net847
*1153 net848
*1154 net849
*1155 net85
*1156 net850
*1157 net851
*1158 net852
*1159 net853
*1160 net854
*1161 net855
*1162 net856
*1163 net857
*1164 net858
*1165 net859
*1166 net86
*1167 net860
*1168 net861
*1169 net862
*1170 net863
*1171 net864
*1172 net865
*1173 net866
*1174 net867
*1175 net868
*1176 net869
*1177 net87
*1178 net870
*1179 net871
*1180 net872
*1181 net873
*1182 net874
*1183 net875
*1184 net876
*1185 net877
*1186 net878
*1187 net879
*1188 net88
*1189 net880
*1190 net881
*1191 net882
*1192 net883
*1193 net884
*1194 net885
*1195 net886
*1196 net887
*1197 net888
*1198 net889
*1199 net89
*1200 net890
*1201 net891
*1202 net892
*1203 net893
*1204 net894
*1205 net895
*1206 net896
*1207 net897
*1208 net898
*1209 net899
*1210 net9
*1211 net90
*1212 net900
*1213 net901
*1214 net902
*1215 net903
*1216 net904
*1217 net905
*1218 net906
*1219 net907
*1220 net908
*1221 net909
*1222 net91
*1223 net910
*1224 net911
*1225 net912
*1226 net913
*1227 net914
*1228 net915
*1229 net916
*1230 net917
*1231 net918
*1232 net919
*1233 net92
*1234 net920
*1235 net921
*1236 net922
*1237 net923
*1238 net924
*1239 net925
*1240 net926
*1241 net927
*1242 net928
*1243 net929
*1244 net93
*1245 net930
*1246 net931
*1247 net932
*1248 net933
*1249 net934
*1250 net935
*1251 net936
*1252 net937
*1253 net938
*1254 net939
*1255 net94
*1256 net940
*1257 net941
*1258 net942
*1259 net943
*1260 net944
*1261 net945
*1262 net946
*1263 net947
*1264 net948
*1265 net949
*1266 net95
*1267 net950
*1268 net951
*1269 net952
*1270 net953
*1271 net954
*1272 net955
*1273 net956
*1274 net957
*1275 net958
*1276 net959
*1277 net96
*1278 net960
*1279 net961
*1280 net962
*1281 net963
*1282 net964
*1283 net965
*1284 net966
*1285 net967
*1286 net968
*1287 net969
*1288 net97
*1289 net970
*1290 net971
*1291 net972
*1292 net973
*1293 net974
*1294 net975
*1295 net976
*1296 net977
*1297 net978
*1298 net979
*1299 net98
*1300 net980
*1301 net981
*1302 net982
*1303 net983
*1304 net984
*1305 net985
*1306 net986
*1307 net987
*1308 net988
*1309 net989
*1310 net99
*1311 net990
*1312 ANTENNA_1
*1313 ANTENNA_2
*1314 ANTENNA_3
*1315 ANTENNA_4
*1316 ANTENNA_c100_B
*1317 ANTENNA_c100_C
*1318 ANTENNA_c101_B
*1319 ANTENNA_c101_C
*1320 ANTENNA_c102_A0
*1321 ANTENNA_c102_A1
*1322 ANTENNA_c102_A3
*1323 ANTENNA_c103_C_N
*1324 ANTENNA_c103_D_N
*1325 ANTENNA_c103_X
*1326 ANTENNA_c104_A
*1327 ANTENNA_c104_B
*1328 ANTENNA_c104_C
*1329 ANTENNA_c105_A
*1330 ANTENNA_c105_B
*1331 ANTENNA_c105_C_N
*1332 ANTENNA_c105_X
*1333 ANTENNA_c106_A
*1334 ANTENNA_c106_C
*1335 ANTENNA_c107_B1
*1336 ANTENNA_c108_C1
*1337 ANTENNA_c108_D1
*1338 ANTENNA_c109_A3
*1339 ANTENNA_c109_S0
*1340 ANTENNA_c109_S1
*1341 ANTENNA_c110_A
*1342 ANTENNA_c110_B
*1343 ANTENNA_c111_A
*1344 ANTENNA_c111_B
*1345 ANTENNA_c112_B
*1346 ANTENNA_c112_X
*1347 ANTENNA_c113_A
*1348 ANTENNA_c113_B
*1349 ANTENNA_c114_A
*1350 ANTENNA_c114_B
*1351 ANTENNA_c115_A
*1352 ANTENNA_c117_C
*1353 ANTENNA_c118_C
*1354 ANTENNA_c118_X
*1355 ANTENNA_c119_C
*1356 ANTENNA_c120_B1
*1357 ANTENNA_c120_C1
*1358 ANTENNA_c120_D1
*1359 ANTENNA_c121_A1
*1360 ANTENNA_c121_A3
*1361 ANTENNA_c121_S0
*1362 ANTENNA_c122_A
*1363 ANTENNA_c122_B
*1364 ANTENNA_c123_B
*1365 ANTENNA_c124_B
*1366 ANTENNA_c124_C
*1367 ANTENNA_c125_B1
*1368 ANTENNA_c126_A
*1369 ANTENNA_c127_A0
*1370 ANTENNA_c127_S1
*1371 ANTENNA_c129_A
*1372 ANTENNA_c129_B
*1373 ANTENNA_c130_A1
*1374 ANTENNA_c130_A2
*1375 ANTENNA_c132_A
*1376 ANTENNA_c132_B
*1377 ANTENNA_c133_A
*1378 ANTENNA_c133_B
*1379 ANTENNA_c133_X
*1380 ANTENNA_c134_B
*1381 ANTENNA_c134_C
*1382 ANTENNA_c134_X
*1383 ANTENNA_c135_A
*1384 ANTENNA_c135_B
*1385 ANTENNA_c135_C
*1386 ANTENNA_c135_X
*1387 ANTENNA_c136_A
*1388 ANTENNA_c136_B
*1389 ANTENNA_c137_A
*1390 ANTENNA_c137_B
*1391 ANTENNA_c138_B
*1392 ANTENNA_c139_A
*1393 ANTENNA_c139_C
*1394 ANTENNA_c139_X
*1395 ANTENNA_c140_A
*1396 ANTENNA_c140_B
*1397 ANTENNA_c140_X
*1398 ANTENNA_c141_C
*1399 ANTENNA_c141_X
*1400 ANTENNA_c142_A
*1401 ANTENNA_c142_B
*1402 ANTENNA_c142_X
*1403 ANTENNA_c143_A
*1404 ANTENNA_c143_B
*1405 ANTENNA_c143_C
*1406 ANTENNA_c144_A0
*1407 ANTENNA_c144_A1
*1408 ANTENNA_c144_A2
*1409 ANTENNA_c145_A0
*1410 ANTENNA_c145_A2
*1411 ANTENNA_c145_A3
*1412 ANTENNA_c145_S0
*1413 ANTENNA_c145_S1
*1414 ANTENNA_c145_X
*1415 ANTENNA_c146_A
*1416 ANTENNA_c146_B
*1417 ANTENNA_c146_C
*1418 ANTENNA_c146_X
*1419 ANTENNA_c147_A1
*1420 ANTENNA_c147_A3
*1421 ANTENNA_c147_X
*1422 ANTENNA_c148_D_N
*1423 ANTENNA_c148_X
*1424 ANTENNA_c149_A
*1425 ANTENNA_c149_B
*1426 ANTENNA_c149_X
*1427 ANTENNA_c150_A0
*1428 ANTENNA_c150_A1
*1429 ANTENNA_c150_A2
*1430 ANTENNA_c150_A3
*1431 ANTENNA_c150_S0
*1432 ANTENNA_c150_X
*1433 ANTENNA_c151_A0
*1434 ANTENNA_c151_A2
*1435 ANTENNA_c151_A3
*1436 ANTENNA_c151_S0
*1437 ANTENNA_c151_S1
*1438 ANTENNA_c151_X
*1439 ANTENNA_c152_A1
*1440 ANTENNA_c152_A2
*1441 ANTENNA_c152_B1
*1442 ANTENNA_c152_C1
*1443 ANTENNA_c152_D1
*1444 ANTENNA_c153_A0
*1445 ANTENNA_c153_A2
*1446 ANTENNA_c153_A3
*1447 ANTENNA_c153_S0
*1448 ANTENNA_c153_S1
*1449 ANTENNA_c153_X
*1450 ANTENNA_c154_A
*1451 ANTENNA_c154_B
*1452 ANTENNA_c154_C_N
*1453 ANTENNA_c154_D_N
*1454 ANTENNA_c154_X
*1455 ANTENNA_c155_B
*1456 ANTENNA_c155_C
*1457 ANTENNA_c155_X
*1458 ANTENNA_c156_A
*1459 ANTENNA_c156_B
*1460 ANTENNA_c156_C
*1461 ANTENNA_c156_X
*1462 ANTENNA_c157_A
*1463 ANTENNA_c157_B
*1464 ANTENNA_c158_A
*1465 ANTENNA_c158_B
*1466 ANTENNA_c158_D_N
*1467 ANTENNA_c159_B1
*1468 ANTENNA_c159_D1
*1469 ANTENNA_c159_X
*1470 ANTENNA_c160_A2
*1471 ANTENNA_c160_B1
*1472 ANTENNA_c160_C1
*1473 ANTENNA_c161_A
*1474 ANTENNA_c161_B
*1475 ANTENNA_c162_A1
*1476 ANTENNA_c162_A2
*1477 ANTENNA_c162_C1
*1478 ANTENNA_c162_D1
*1479 ANTENNA_c163_A
*1480 ANTENNA_c163_D_N
*1481 ANTENNA_c163_X
*1482 ANTENNA_c164_A
*1483 ANTENNA_c164_X
*1484 ANTENNA_c165_A1
*1485 ANTENNA_c165_A2
*1486 ANTENNA_c165_A3
*1487 ANTENNA_c165_S1
*1488 ANTENNA_c165_X
*1489 ANTENNA_c166_A0
*1490 ANTENNA_c166_A1
*1491 ANTENNA_c166_A2
*1492 ANTENNA_c166_A3
*1493 ANTENNA_c167_A
*1494 ANTENNA_c167_B
*1495 ANTENNA_c167_X
*1496 ANTENNA_c168_A1
*1497 ANTENNA_c168_C1
*1498 ANTENNA_c168_D1
*1499 ANTENNA_c169_C
*1500 ANTENNA_c169_X
*1501 ANTENNA_c170_A2
*1502 ANTENNA_c170_B1
*1503 ANTENNA_c170_X
*1504 ANTENNA_c171_A
*1505 ANTENNA_c171_B
*1506 ANTENNA_c171_C
*1507 ANTENNA_c171_X
*1508 ANTENNA_c172_B
*1509 ANTENNA_c172_C
*1510 ANTENNA_c172_X
*1511 ANTENNA_c173_A2
*1512 ANTENNA_c173_S0
*1513 ANTENNA_c173_S1
*1514 ANTENNA_c174_A1
*1515 ANTENNA_c174_A2
*1516 ANTENNA_c174_D1
*1517 ANTENNA_c174_X
*1518 ANTENNA_c175_A1
*1519 ANTENNA_c175_A2
*1520 ANTENNA_c175_A3
*1521 ANTENNA_c175_S0
*1522 ANTENNA_c175_S1
*1523 ANTENNA_c176_A0
*1524 ANTENNA_c176_A1
*1525 ANTENNA_c176_A2
*1526 ANTENNA_c176_A3
*1527 ANTENNA_c176_S0
*1528 ANTENNA_c177_A
*1529 ANTENNA_c177_B
*1530 ANTENNA_c177_C
*1531 ANTENNA_c177_X
*1532 ANTENNA_c178_A
*1533 ANTENNA_c178_B
*1534 ANTENNA_c179_B
*1535 ANTENNA_c179_C
*1536 ANTENNA_c179_X
*1537 ANTENNA_c180_A
*1538 ANTENNA_c180_B
*1539 ANTENNA_c180_C
*1540 ANTENNA_c180_X
*1541 ANTENNA_c181_A
*1542 ANTENNA_c182_A
*1543 ANTENNA_c182_X
*1544 ANTENNA_c183_A
*1545 ANTENNA_c183_C
*1546 ANTENNA_c184_A0
*1547 ANTENNA_c184_A3
*1548 ANTENNA_c184_S0
*1549 ANTENNA_c185_A0
*1550 ANTENNA_c185_A1
*1551 ANTENNA_c185_A2
*1552 ANTENNA_c185_A3
*1553 ANTENNA_c185_S0
*1554 ANTENNA_c185_X
*1555 ANTENNA_c186_A
*1556 ANTENNA_c186_D_N
*1557 ANTENNA_c187_B
*1558 ANTENNA_c188_A
*1559 ANTENNA_c188_B
*1560 ANTENNA_c188_C
*1561 ANTENNA_c188_X
*1562 ANTENNA_c189_A0
*1563 ANTENNA_c189_A1
*1564 ANTENNA_c189_A3
*1565 ANTENNA_c189_S0
*1566 ANTENNA_c189_S1
*1567 ANTENNA_c190_C
*1568 ANTENNA_c191_A0
*1569 ANTENNA_c191_A3
*1570 ANTENNA_c191_X
*1571 ANTENNA_c192_A
*1572 ANTENNA_c192_X
*1573 ANTENNA_c193_A0
*1574 ANTENNA_c193_A1
*1575 ANTENNA_c193_A2
*1576 ANTENNA_c193_A3
*1577 ANTENNA_c193_S1
*1578 ANTENNA_c194_C1
*1579 ANTENNA_c194_X
*1580 ANTENNA_c195_A
*1581 ANTENNA_c195_C_N
*1582 ANTENNA_c195_D_N
*1583 ANTENNA_c196_A0
*1584 ANTENNA_c196_A1
*1585 ANTENNA_c196_A3
*1586 ANTENNA_c197_S0
*1587 ANTENNA_c197_S1
*1588 ANTENNA_c198_B
*1589 ANTENNA_c198_C
*1590 ANTENNA_c198_X
*1591 ANTENNA_c199_B
*1592 ANTENNA_c199_X
*1593 ANTENNA_c200_A1
*1594 ANTENNA_c200_A2
*1595 ANTENNA_c200_B1
*1596 ANTENNA_c200_C1
*1597 ANTENNA_c200_D1
*1598 ANTENNA_c201_C
*1599 ANTENNA_c201_X
*1600 ANTENNA_c202_A
*1601 ANTENNA_c202_B
*1602 ANTENNA_c202_C
*1603 ANTENNA_c202_X
*1604 ANTENNA_c203_A
*1605 ANTENNA_c203_B
*1606 ANTENNA_c203_C
*1607 ANTENNA_c204_A0
*1608 ANTENNA_c204_A1
*1609 ANTENNA_c204_A2
*1610 ANTENNA_c204_A3
*1611 ANTENNA_c204_S0
*1612 ANTENNA_c204_S1
*1613 ANTENNA_c204_X
*1614 ANTENNA_c205_A
*1615 ANTENNA_c205_X
*1616 ANTENNA_c206_A
*1617 ANTENNA_c206_C
*1618 ANTENNA_c207_B
*1619 ANTENNA_c207_X
*1620 ANTENNA_c208_A0
*1621 ANTENNA_c208_A2
*1622 ANTENNA_c208_A3
*1623 ANTENNA_c208_S0
*1624 ANTENNA_c208_S1
*1625 ANTENNA_c209_C_N
*1626 ANTENNA_c210_A2
*1627 ANTENNA_c210_B1
*1628 ANTENNA_c210_C1
*1629 ANTENNA_c210_D1
*1630 ANTENNA_c211_A2
*1631 ANTENNA_c211_B1
*1632 ANTENNA_c211_D1
*1633 ANTENNA_c211_X
*1634 ANTENNA_c212_A1
*1635 ANTENNA_c212_A2
*1636 ANTENNA_c212_B1
*1637 ANTENNA_c212_C1
*1638 ANTENNA_c212_D1
*1639 ANTENNA_c213_B
*1640 ANTENNA_c213_C
*1641 ANTENNA_c214_B1
*1642 ANTENNA_c214_C1
*1643 ANTENNA_c214_D1
*1644 ANTENNA_c214_X
*1645 ANTENNA_c215_A
*1646 ANTENNA_c216_A1
*1647 ANTENNA_c216_A2
*1648 ANTENNA_c216_C1
*1649 ANTENNA_c216_D1
*1650 ANTENNA_c216_X
*1651 ANTENNA_c217_A0
*1652 ANTENNA_c217_A1
*1653 ANTENNA_c217_A2
*1654 ANTENNA_c217_A3
*1655 ANTENNA_c217_S1
*1656 ANTENNA_c218_A2
*1657 ANTENNA_c218_B1
*1658 ANTENNA_c218_C1
*1659 ANTENNA_c219_B
*1660 ANTENNA_c219_C_N
*1661 ANTENNA_c219_D_N
*1662 ANTENNA_c219_X
*1663 ANTENNA_c220_B
*1664 ANTENNA_c220_C
*1665 ANTENNA_c220_X
*1666 ANTENNA_c221_A1
*1667 ANTENNA_c221_A2
*1668 ANTENNA_c221_B1
*1669 ANTENNA_c221_D1
*1670 ANTENNA_c221_X
*1671 ANTENNA_c222_A
*1672 ANTENNA_c223_A1
*1673 ANTENNA_c223_A2
*1674 ANTENNA_c223_A3
*1675 ANTENNA_c224_A
*1676 ANTENNA_c224_B
*1677 ANTENNA_c224_C
*1678 ANTENNA_c225_A
*1679 ANTENNA_c225_B
*1680 ANTENNA_c225_C
*1681 ANTENNA_c227_A
*1682 ANTENNA_c227_B
*1683 ANTENNA_c227_C
*1684 ANTENNA_c228_B
*1685 ANTENNA_c228_C
*1686 ANTENNA_c229_A
*1687 ANTENNA_c229_B
*1688 ANTENNA_c229_C
*1689 ANTENNA_c230_B
*1690 ANTENNA_c230_C
*1691 ANTENNA_c230_X
*1692 ANTENNA_c231_C
*1693 ANTENNA_c232_A2
*1694 ANTENNA_c232_B1
*1695 ANTENNA_c232_C1
*1696 ANTENNA_c232_D1
*1697 ANTENNA_c233_B1
*1698 ANTENNA_c233_C1
*1699 ANTENNA_c234_A
*1700 ANTENNA_c235_A1
*1701 ANTENNA_c235_B1
*1702 ANTENNA_c235_D1
*1703 ANTENNA_c236_A0
*1704 ANTENNA_c236_A1
*1705 ANTENNA_c236_A3
*1706 ANTENNA_c236_S0
*1707 ANTENNA_c236_S1
*1708 ANTENNA_c237_A1
*1709 ANTENNA_c237_C1
*1710 ANTENNA_c237_D1
*1711 ANTENNA_c238_B
*1712 ANTENNA_c238_X
*1713 ANTENNA_c239_A
*1714 ANTENNA_c240_C
*1715 ANTENNA_c241_B1
*1716 ANTENNA_c241_C1
*1717 ANTENNA_c241_D1
*1718 ANTENNA_c256_A2
*1719 ANTENNA_c256_A3
*1720 ANTENNA_c257_A0
*1721 ANTENNA_c257_S1
*1722 ANTENNA_c258_A2
*1723 ANTENNA_c259_A3
*1724 ANTENNA_c259_S1
*1725 ANTENNA_c260_S0
*1726 ANTENNA_c260_S1
*1727 ANTENNA_c261_S0
*1728 ANTENNA_c261_S1
*1729 ANTENNA_c262_A3
*1730 ANTENNA_c262_S0
*1731 ANTENNA_c262_S1
*1732 ANTENNA_c263_S0
*1733 ANTENNA_c263_S1
*1734 ANTENNA_c264_A
*1735 ANTENNA_c264_B
*1736 ANTENNA_c264_X
*1737 ANTENNA_c265_A
*1738 ANTENNA_c265_B
*1739 ANTENNA_c266_B
*1740 ANTENNA_c266_C
*1741 ANTENNA_c266_X
*1742 ANTENNA_c267_A
*1743 ANTENNA_c267_B
*1744 ANTENNA_c267_X
*1745 ANTENNA_c268_A
*1746 ANTENNA_c269_B
*1747 ANTENNA_c269_X
*1748 ANTENNA_c270_A
*1749 ANTENNA_c270_B
*1750 ANTENNA_c270_X
*1751 ANTENNA_c271_A
*1752 ANTENNA_c271_B
*1753 ANTENNA_c271_C
*1754 ANTENNA_c271_X
*1755 ANTENNA_c272_A
*1756 ANTENNA_c272_C
*1757 ANTENNA_c272_X
*1758 ANTENNA_c273_A
*1759 ANTENNA_c273_B
*1760 ANTENNA_c273_X
*1761 ANTENNA_c274_B
*1762 ANTENNA_c274_X
*1763 ANTENNA_c275_A
*1764 ANTENNA_c275_B
*1765 ANTENNA_c275_C
*1766 ANTENNA_c275_X
*1767 ANTENNA_c276_A
*1768 ANTENNA_c276_B
*1769 ANTENNA_c276_X
*1770 ANTENNA_c277_A
*1771 ANTENNA_c277_B
*1772 ANTENNA_c278_B
*1773 ANTENNA_c278_X
*1774 ANTENNA_c279_B
*1775 ANTENNA_c279_C_N
*1776 ANTENNA_c279_D_N
*1777 ANTENNA_c280_B
*1778 ANTENNA_c280_C_N
*1779 ANTENNA_c280_D_N
*1780 ANTENNA_c280_X
*1781 ANTENNA_c281_A
*1782 ANTENNA_c281_B
*1783 ANTENNA_c281_C
*1784 ANTENNA_c281_X
*1785 ANTENNA_c282_A1
*1786 ANTENNA_c282_B1
*1787 ANTENNA_c282_C1
*1788 ANTENNA_c282_D1
*1789 ANTENNA_c282_X
*1790 ANTENNA_c283_A
*1791 ANTENNA_c283_B
*1792 ANTENNA_c283_C
*1793 ANTENNA_c283_X
*1794 ANTENNA_c284_A0
*1795 ANTENNA_c284_A1
*1796 ANTENNA_c284_S0
*1797 ANTENNA_c284_S1
*1798 ANTENNA_c285_A0
*1799 ANTENNA_c285_A1
*1800 ANTENNA_c285_A2
*1801 ANTENNA_c285_A3
*1802 ANTENNA_c285_S0
*1803 ANTENNA_c285_S1
*1804 ANTENNA_c285_X
*1805 ANTENNA_c286_A
*1806 ANTENNA_c286_C
*1807 ANTENNA_c287_B
*1808 ANTENNA_c288_A
*1809 ANTENNA_c289_B
*1810 ANTENNA_c289_C
*1811 ANTENNA_c289_X
*1812 ANTENNA_c290_A
*1813 ANTENNA_c290_B
*1814 ANTENNA_c290_C_N
*1815 ANTENNA_c290_D_N
*1816 ANTENNA_c291_A
*1817 ANTENNA_c291_B
*1818 ANTENNA_c291_C
*1819 ANTENNA_c291_X
*1820 ANTENNA_c292_A
*1821 ANTENNA_c292_B
*1822 ANTENNA_c292_C_N
*1823 ANTENNA_c292_D_N
*1824 ANTENNA_c292_X
*1825 ANTENNA_c293_A
*1826 ANTENNA_c293_B
*1827 ANTENNA_c293_X
*1828 ANTENNA_c294_A1
*1829 ANTENNA_c294_A2
*1830 ANTENNA_c294_A3
*1831 ANTENNA_c294_S0
*1832 ANTENNA_c294_S1
*1833 ANTENNA_c295_A
*1834 ANTENNA_c295_B
*1835 ANTENNA_c295_D_N
*1836 ANTENNA_c296_A
*1837 ANTENNA_c296_C
*1838 ANTENNA_c297_A0
*1839 ANTENNA_c297_A1
*1840 ANTENNA_c297_S1
*1841 ANTENNA_c298_A2
*1842 ANTENNA_c298_A3
*1843 ANTENNA_c298_S1
*1844 ANTENNA_c298_X
*1845 ANTENNA_c299_B
*1846 ANTENNA_c300_A
*1847 ANTENNA_c300_C
*1848 ANTENNA_c300_X
*1849 ANTENNA_c301_B
*1850 ANTENNA_c301_C
*1851 ANTENNA_c302_A
*1852 ANTENNA_c302_X
*1853 ANTENNA_c303_A1
*1854 ANTENNA_c303_A3
*1855 ANTENNA_c303_S0
*1856 ANTENNA_c303_S1
*1857 ANTENNA_c303_X
*1858 ANTENNA_c304_A1
*1859 ANTENNA_c304_B1
*1860 ANTENNA_c304_C1
*1861 ANTENNA_c304_X
*1862 ANTENNA_c305_A0
*1863 ANTENNA_c305_A2
*1864 ANTENNA_c305_A3
*1865 ANTENNA_c305_S1
*1866 ANTENNA_c306_B
*1867 ANTENNA_c306_X
*1868 ANTENNA_c307_B
*1869 ANTENNA_c307_C
*1870 ANTENNA_c308_X
*1871 ANTENNA_c309_B
*1872 ANTENNA_c309_C
*1873 ANTENNA_c310_C
*1874 ANTENNA_c310_X
*1875 ANTENNA_c311_C_N
*1876 ANTENNA_c311_D_N
*1877 ANTENNA_c311_X
*1878 ANTENNA_c312_C
*1879 ANTENNA_c312_X
*1880 ANTENNA_c313_C_N
*1881 ANTENNA_c314_B
*1882 ANTENNA_c314_C
*1883 ANTENNA_c314_X
*1884 ANTENNA_c315_A
*1885 ANTENNA_c315_C
*1886 ANTENNA_c315_X
*1887 ANTENNA_c316_C
*1888 ANTENNA_c316_X
*1889 ANTENNA_c317_A2
*1890 ANTENNA_c317_B1
*1891 ANTENNA_c317_C1
*1892 ANTENNA_c317_D1
*1893 ANTENNA_c317_X
*1894 ANTENNA_c318_A1