*SPEF "ieee 1481-1999"
*DESIGN "netlist_1"
*DATE "21:16:02 Friday August 16, 2024"
*VENDOR "The OpenROAD Project"
*PROGRAM "OpenROAD"
*VERSION "d423155d69de7f683a23f6916ead418a615ad4ad"
*DESIGN_FLOW "NAME_SCOPE LOCAL" "PIN_CAP NONE"
*DIVIDER /
*DELIMITER :
*BUS_DELIMITER []
*T_UNIT 1 NS
*C_UNIT 1 PF
*R_UNIT 1 OHM
*L_UNIT 1 HENRY

*NAME_MAP
*3 clk
*4 in0
*5 in1
*6 in10
*7 in11
*8 in12
*9 in13
*10 in14
*11 in15
*12 in16
*13 in17
*14 in18
*15 in19
*16 in2
*17 in20
*18 in21
*19 in22
*20 in23
*21 in24
*22 in3
*23 in4
*24 in5
*25 in6
*26 in7
*27 in8
*28 in9
*29 out0
*30 out1
*31 out10
*32 out11
*33 out12
*34 out13
*35 out14
*36 out15
*37 out16
*38 out17
*39 out18
*40 out19
*41 out2
*42 out20
*43 out21
*44 out22
*45 out23
*46 out24
*47 out3
*48 out4
*49 out5
*50 out6
*51 out7
*52 out8
*53 out9
*54 rst
*55 clknet_0_clk
*56 clknet_0_net152
*57 clknet_0_net161
*58 clknet_0_net163
*59 clknet_0_net165
*60 clknet_0_net167
*61 clknet_0_net174
*62 clknet_0_net175
*63 clknet_0_net177
*64 clknet_0_net178
*65 clknet_0_net179
*66 clknet_0_net181
*67 clknet_0_net182
*68 clknet_0_net185
*69 clknet_0_net186
*70 clknet_0_net191
*71 clknet_0_net192
*72 clknet_0_net200
*73 clknet_0_net203
*74 clknet_0_net221
*75 clknet_0_net222
*76 clknet_0_net225
*77 clknet_0_net226
*78 clknet_0_net231
*79 clknet_0_net233
*80 clknet_0_net234
*81 clknet_0_net286
*82 clknet_0_net289
*83 clknet_0_net293
*84 clknet_0_net296
*85 clknet_0_net297
*86 clknet_0_net301
*87 clknet_0_net302
*88 clknet_0_net309
*89 clknet_0_net310
*90 clknet_0_net313
*91 clknet_0_net315
*92 clknet_0_net316
*93 clknet_0_net317
*94 clknet_0_net320
*95 clknet_0_net327
*96 clknet_0_net331
*97 clknet_0_net339
*98 clknet_0_net351
*99 clknet_0_net352
*100 clknet_0_net365
*101 clknet_0_net366
*102 clknet_0_net436
*103 clknet_0_net437
*104 clknet_0_net442
*105 clknet_0_net447
*106 clknet_0_net455
*107 clknet_0_net456
*108 clknet_0_net469
*109 clknet_0_net470
*110 clknet_0_net489
*111 clknet_0_net496
*112 clknet_0_net499
*113 clknet_0_net500
*114 clknet_0_net504
*115 clknet_0_net561
*116 clknet_0_net562
*117 clknet_0_net567
*118 clknet_0_net570
*119 clknet_0_net574
*120 clknet_0_net595
*121 clknet_0_net596
*122 clknet_0_net597
*123 clknet_0_net600
*124 clknet_0_net604
*125 clknet_0_net605
*126 clknet_0_net607
*127 clknet_0_net609
*128 clknet_0_net611
*129 clknet_0_net635
*130 clknet_0_net693
*131 clknet_0_net694
*132 clknet_0_net696
*133 clknet_0_net700
*134 clknet_0_net703
*135 clknet_0_net706
*136 clknet_0_net709
*137 clknet_0_net721
*138 clknet_0_net819
*139 clknet_0_net822
*140 clknet_0_net823
*141 clknet_0_net858
*142 clknet_0_net859
*143 clknet_0_net880
*144 clknet_0_net881
*145 clknet_0_net882
*146 clknet_0_net901
*147 clknet_0_net902
*148 clknet_0_net903
*149 clknet_0_net922
*150 clknet_0_net923
*151 clknet_0_net924
*152 clknet_0_net942
*153 clknet_0_net943
*154 clknet_0_net944
*155 clknet_0_net985
*156 clknet_0_net994
*157 clknet_0_net996
*158 clknet_1_0__leaf_net152
*159 clknet_1_0__leaf_net161
*160 clknet_1_0__leaf_net163
*161 clknet_1_0__leaf_net165
*162 clknet_1_0__leaf_net167
*163 clknet_1_0__leaf_net174
*164 clknet_1_0__leaf_net175
*165 clknet_1_0__leaf_net177
*166 clknet_1_0__leaf_net178
*167 clknet_1_0__leaf_net179
*168 clknet_1_0__leaf_net181
*169 clknet_1_0__leaf_net182
*170 clknet_1_0__leaf_net185
*171 clknet_1_0__leaf_net186
*172 clknet_1_0__leaf_net191
*173 clknet_1_0__leaf_net192
*174 clknet_1_0__leaf_net200
*175 clknet_1_0__leaf_net203
*176 clknet_1_0__leaf_net221
*177 clknet_1_0__leaf_net222
*178 clknet_1_0__leaf_net225
*179 clknet_1_0__leaf_net226
*180 clknet_1_0__leaf_net231
*181 clknet_1_0__leaf_net233
*182 clknet_1_0__leaf_net234
*183 clknet_1_0__leaf_net286
*184 clknet_1_0__leaf_net289
*185 clknet_1_0__leaf_net293
*186 clknet_1_0__leaf_net296
*187 clknet_1_0__leaf_net297
*188 clknet_1_0__leaf_net301
*189 clknet_1_0__leaf_net302
*190 clknet_1_0__leaf_net309
*191 clknet_1_0__leaf_net310
*192 clknet_1_0__leaf_net313
*193 clknet_1_0__leaf_net315
*194 clknet_1_0__leaf_net316
*195 clknet_1_0__leaf_net317
*196 clknet_1_0__leaf_net320
*197 clknet_1_0__leaf_net327
*198 clknet_1_0__leaf_net331
*199 clknet_1_0__leaf_net339
*200 clknet_1_0__leaf_net351
*201 clknet_1_0__leaf_net352
*202 clknet_1_0__leaf_net365
*203 clknet_1_0__leaf_net366
*204 clknet_1_0__leaf_net436
*205 clknet_1_0__leaf_net437
*206 clknet_1_0__leaf_net442
*207 clknet_1_0__leaf_net447
*208 clknet_1_0__leaf_net455
*209 clknet_1_0__leaf_net456
*210 clknet_1_0__leaf_net469
*211 clknet_1_0__leaf_net470
*212 clknet_1_0__leaf_net489
*213 clknet_1_0__leaf_net496
*214 clknet_1_0__leaf_net499
*215 clknet_1_0__leaf_net500
*216 clknet_1_0__leaf_net504
*217 clknet_1_0__leaf_net561
*218 clknet_1_0__leaf_net562
*219 clknet_1_0__leaf_net567
*220 clknet_1_0__leaf_net570
*221 clknet_1_0__leaf_net574
*222 clknet_1_0__leaf_net595
*223 clknet_1_0__leaf_net596
*224 clknet_1_0__leaf_net597
*225 clknet_1_0__leaf_net600
*226 clknet_1_0__leaf_net604
*227 clknet_1_0__leaf_net605
*228 clknet_1_0__leaf_net607
*229 clknet_1_0__leaf_net609
*230 clknet_1_0__leaf_net611
*231 clknet_1_0__leaf_net635
*232 clknet_1_0__leaf_net693
*233 clknet_1_0__leaf_net694
*234 clknet_1_0__leaf_net696
*235 clknet_1_0__leaf_net700
*236 clknet_1_0__leaf_net703
*237 clknet_1_0__leaf_net706
*238 clknet_1_0__leaf_net709
*239 clknet_1_0__leaf_net721
*240 clknet_1_0__leaf_net819
*241 clknet_1_0__leaf_net822
*242 clknet_1_0__leaf_net823
*243 clknet_1_0__leaf_net858
*244 clknet_1_0__leaf_net859
*245 clknet_1_0__leaf_net880
*246 clknet_1_0__leaf_net881
*247 clknet_1_0__leaf_net882
*248 clknet_1_0__leaf_net901
*249 clknet_1_0__leaf_net902
*250 clknet_1_0__leaf_net903
*251 clknet_1_0__leaf_net922
*252 clknet_1_0__leaf_net923
*253 clknet_1_0__leaf_net924
*254 clknet_1_0__leaf_net942
*255 clknet_1_0__leaf_net943
*256 clknet_1_0__leaf_net944
*257 clknet_1_0__leaf_net985
*258 clknet_1_0__leaf_net994
*259 clknet_1_0__leaf_net996
*260 clknet_1_1__leaf_net152
*261 clknet_1_1__leaf_net161
*262 clknet_1_1__leaf_net163
*263 clknet_1_1__leaf_net165
*264 clknet_1_1__leaf_net167
*265 clknet_1_1__leaf_net174
*266 clknet_1_1__leaf_net175
*267 clknet_1_1__leaf_net177
*268 clknet_1_1__leaf_net178
*269 clknet_1_1__leaf_net179
*270 clknet_1_1__leaf_net181
*271 clknet_1_1__leaf_net182
*272 clknet_1_1__leaf_net185
*273 clknet_1_1__leaf_net186
*274 clknet_1_1__leaf_net191
*275 clknet_1_1__leaf_net192
*276 clknet_1_1__leaf_net200
*277 clknet_1_1__leaf_net203
*278 clknet_1_1__leaf_net221
*279 clknet_1_1__leaf_net222
*280 clknet_1_1__leaf_net225
*281 clknet_1_1__leaf_net226
*282 clknet_1_1__leaf_net231
*283 clknet_1_1__leaf_net233
*284 clknet_1_1__leaf_net234
*285 clknet_1_1__leaf_net286
*286 clknet_1_1__leaf_net289
*287 clknet_1_1__leaf_net293
*288 clknet_1_1__leaf_net296
*289 clknet_1_1__leaf_net297
*290 clknet_1_1__leaf_net301
*291 clknet_1_1__leaf_net302
*292 clknet_1_1__leaf_net309
*293 clknet_1_1__leaf_net310
*294 clknet_1_1__leaf_net313
*295 clknet_1_1__leaf_net315
*296 clknet_1_1__leaf_net316
*297 clknet_1_1__leaf_net317
*298 clknet_1_1__leaf_net320
*299 clknet_1_1__leaf_net327
*300 clknet_1_1__leaf_net331
*301 clknet_1_1__leaf_net339
*302 clknet_1_1__leaf_net351
*303 clknet_1_1__leaf_net352
*304 clknet_1_1__leaf_net365
*305 clknet_1_1__leaf_net366
*306 clknet_1_1__leaf_net436
*307 clknet_1_1__leaf_net437
*308 clknet_1_1__leaf_net442
*309 clknet_1_1__leaf_net447
*310 clknet_1_1__leaf_net455
*311 clknet_1_1__leaf_net456
*312 clknet_1_1__leaf_net469
*313 clknet_1_1__leaf_net470
*314 clknet_1_1__leaf_net489
*315 clknet_1_1__leaf_net496
*316 clknet_1_1__leaf_net499
*317 clknet_1_1__leaf_net500
*318 clknet_1_1__leaf_net504
*319 clknet_1_1__leaf_net561
*320 clknet_1_1__leaf_net562
*321 clknet_1_1__leaf_net567
*322 clknet_1_1__leaf_net570
*323 clknet_1_1__leaf_net574
*324 clknet_1_1__leaf_net595
*325 clknet_1_1__leaf_net596
*326 clknet_1_1__leaf_net597
*327 clknet_1_1__leaf_net600
*328 clknet_1_1__leaf_net604
*329 clknet_1_1__leaf_net605
*330 clknet_1_1__leaf_net607
*331 clknet_1_1__leaf_net609
*332 clknet_1_1__leaf_net611
*333 clknet_1_1__leaf_net635
*334 clknet_1_1__leaf_net693
*335 clknet_1_1__leaf_net694
*336 clknet_1_1__leaf_net696
*337 clknet_1_1__leaf_net700
*338 clknet_1_1__leaf_net703
*339 clknet_1_1__leaf_net706
*340 clknet_1_1__leaf_net709
*341 clknet_1_1__leaf_net721
*342 clknet_1_1__leaf_net819
*343 clknet_1_1__leaf_net822
*344 clknet_1_1__leaf_net823
*345 clknet_1_1__leaf_net858
*346 clknet_1_1__leaf_net859
*347 clknet_1_1__leaf_net880
*348 clknet_1_1__leaf_net881
*349 clknet_1_1__leaf_net882
*350 clknet_1_1__leaf_net901
*351 clknet_1_1__leaf_net902
*352 clknet_1_1__leaf_net903
*353 clknet_1_1__leaf_net922
*354 clknet_1_1__leaf_net923
*355 clknet_1_1__leaf_net924
*356 clknet_1_1__leaf_net942
*357 clknet_1_1__leaf_net943
*358 clknet_1_1__leaf_net944
*359 clknet_1_1__leaf_net985
*360 clknet_1_1__leaf_net994
*361 clknet_1_1__leaf_net996
*362 clknet_4_0_0_clk
*363 clknet_4_10_0_clk
*364 clknet_4_11_0_clk
*365 clknet_4_12_0_clk
*366 clknet_4_13_0_clk
*367 clknet_4_14_0_clk
*368 clknet_4_15_0_clk
*369 clknet_4_1_0_clk
*370 clknet_4_2_0_clk
*371 clknet_4_3_0_clk
*372 clknet_4_4_0_clk
*373 clknet_4_5_0_clk
*374 clknet_4_6_0_clk
*375 clknet_4_7_0_clk
*376 clknet_4_8_0_clk
*377 clknet_4_9_0_clk
*378 net0
*379 net1
*380 net10
*381 net100
*382 net1000
*383 net1001
*384 net1002
*385 net1003
*386 net1004
*387 net1005
*388 net1006
*389 net1007
*390 net1008
*391 net1009
*392 net101
*393 net1010
*394 net1011
*395 net1012
*396 net1013
*397 net1014
*398 net1015
*399 net1016
*400 net1017
*401 net1018
*402 net1019
*403 net102
*404 net1020
*405 net1021
*406 net1022
*407 net1023
*408 net1024
*409 net1025
*410 net1026
*411 net1027
*412 net1028
*413 net1029
*414 net103
*415 net1030
*416 net1031
*417 net1032
*418 net1033
*419 net1034
*420 net1035
*421 net1036
*422 net1037
*423 net1038
*424 net1039
*425 net104
*426 net1040
*427 net1041
*428 net1042
*429 net1043
*430 net1044
*431 net1045
*432 net1046
*433 net1047
*434 net1048
*435 net1049
*436 net105
*437 net1050
*438 net1051
*439 net1052
*440 net1053
*441 net1054
*442 net1055
*443 net1056
*444 net1057
*445 net1058
*446 net1059
*447 net106
*448 net1060
*449 net1061
*450 net1062
*451 net1063
*452 net1064
*453 net1065
*454 net1066
*455 net1067
*456 net1068
*457 net1069
*458 net107
*459 net1070
*460 net1071
*461 net1072
*462 net1073
*463 net1074
*464 net1075
*465 net1076
*466 net1077
*467 net1078
*468 net1079
*469 net108
*470 net1080
*471 net1081
*472 net1082
*473 net1083
*474 net1084
*475 net1085
*476 net1086
*477 net1087
*478 net1088
*479 net1089
*480 net109
*481 net1090
*482 net1091
*483 net1092
*484 net1093
*485 net1094
*486 net1095
*487 net1096
*488 net1097
*489 net1098
*490 net1099
*491 net11
*492 net110
*493 net1100
*494 net1101
*495 net1102
*496 net1103
*497 net1104
*498 net1105
*499 net1106
*500 net1107
*501 net1108
*502 net1109
*503 net111
*504 net1110
*505 net1111
*506 net1112
*507 net1113
*508 net1114
*509 net1115
*510 net1116
*511 net1117
*512 net1118
*513 net1119
*514 net112
*515 net1120
*516 net1121
*517 net1122
*518 net1123
*519 net1124
*520 net1125
*521 net1126
*522 net1127
*523 net1128
*524 net1129
*525 net113
*526 net1130
*527 net1131
*528 net1132
*529 net1133
*530 net1134
*531 net1135
*532 net1136
*533 net1137
*534 net1138
*535 net1139
*536 net114
*537 net1140
*538 net1141
*539 net1142
*540 net1143
*541 net1144
*542 net1145
*543 net1146
*544 net1147
*545 net1148
*546 net1149
*547 net115
*548 net1150
*549 net1151
*550 net1152
*551 net1153
*552 net1154
*553 net1155
*554 net1156
*555 net1157
*556 net1158
*557 net1159
*558 net116
*559 net1160
*560 net1161
*561 net1162
*562 net1163
*563 net1164
*564 net1165
*565 net1166
*566 net1167
*567 net1168
*568 net1169
*569 net117
*570 net1170
*571 net1171
*572 net1172
*573 net1173
*574 net1174
*575 net1175
*576 net1176
*577 net1177
*578 net1178
*579 net1179
*580 net118
*581 net1180
*582 net1181
*583 net1182
*584 net1183
*585 net1184
*586 net1185
*587 net1186
*588 net1187
*589 net1188
*590 net1189
*591 net119
*592 net1190
*593 net1191
*594 net1192
*595 net1193
*596 net1194
*597 net1195
*598 net1196
*599 net1197
*600 net1198
*601 net1199
*602 net12
*603 net120
*604 net1200
*605 net1201
*606 net1202
*607 net1203
*608 net1204
*609 net1205
*610 net1206
*611 net1207
*612 net121
*613 net122
*614 net123
*615 net124
*616 net125
*617 net126
*618 net127
*619 net128
*620 net129
*621 net13
*622 net130
*623 net131
*624 net132
*625 net133
*626 net134
*627 net135
*628 net136
*629 net137
*630 net138
*631 net139
*632 net14
*633 net140
*634 net141
*635 net142
*636 net143
*637 net144
*638 net145
*639 net146
*640 net147
*641 net148
*642 net149
*643 net15
*644 net150
*645 net151
*646 net152
*647 net153
*648 net154
*649 net155
*650 net156
*651 net157
*652 net158
*653 net159
*654 net16
*655 net160
*656 net161
*657 net162
*658 net163
*659 net164
*660 net165
*661 net166
*662 net167
*663 net168
*664 net169
*665 net17
*666 net170
*667 net171
*668 net172
*669 net173
*670 net174
*671 net175
*672 net176
*673 net177
*674 net178
*675 net179
*676 net18
*677 net180
*678 net181
*679 net182
*680 net183
*681 net184
*682 net185
*683 net186
*684 net187
*685 net188
*686 net189
*687 net19
*688 net190
*689 net191
*690 net192
*691 net193
*692 net194
*693 net195
*694 net196
*695 net197
*696 net198
*697 net199
*698 net2
*699 net20
*700 net200
*701 net201
*702 net202
*703 net203
*704 net204
*705 net205
*706 net206
*707 net207
*708 net208
*709 net209
*710 net21
*711 net210
*712 net211
*713 net212
*714 net213
*715 net214
*716 net215
*717 net216
*718 net217
*719 net218
*720 net219
*721 net22
*722 net220
*723 net221
*724 net222
*725 net223
*726 net224
*727 net225
*728 net226
*729 net227
*730 net228
*731 net229
*732 net23
*733 net230
*734 net231
*735 net232
*736 net233
*737 net234
*738 net235
*739 net236
*740 net237
*741 net238
*742 net239
*743 net24
*744 net240
*745 net241
*746 net242
*747 net243
*748 net244
*749 net245
*750 net246
*751 net247
*752 net248
*753 net249
*754 net25
*755 net250
*756 net251
*757 net252
*758 net253
*759 net254
*760 net255
*761 net256
*762 net257
*763 net258
*764 net259
*765 net26
*766 net260
*767 net261
*768 net262
*769 net263
*770 net264
*771 net265
*772 net266
*773 net267
*774 net268
*775 net269
*776 net27
*777 net270
*778 net271
*779 net272
*780 net273
*781 net274
*782 net275
*783 net276
*784 net277
*785 net278
*786 net279
*787 net28
*788 net280
*789 net281
*790 net282
*791 net283
*792 net284
*793 net285
*794 net286
*795 net287
*796 net288
*797 net289
*798 net29
*799 net290
*800 net291
*801 net292
*802 net293
*803 net294
*804 net295
*805 net296
*806 net297
*807 net298
*808 net299
*809 net3
*810 net30
*811 net300
*812 net301
*813 net302
*814 net303
*815 net304
*816 net305
*817 net306
*818 net307
*819 net308
*820 net309
*821 net31
*822 net310
*823 net311
*824 net312
*825 net313
*826 net314
*827 net315
*828 net316
*829 net317
*830 net318
*831 net319
*832 net32
*833 net320
*834 net321
*835 net322
*836 net323
*837 net324
*838 net325
*839 net326
*840 net327
*841 net328
*842 net329
*843 net33
*844 net330
*845 net331
*846 net332
*847 net333
*848 net334
*849 net335
*850 net336
*851 net337
*852 net338
*853 net339
*854 net34
*855 net340
*856 net341
*857 net342
*858 net343
*859 net344
*860 net345
*861 net346
*862 net347
*863 net348
*864 net349
*865 net35
*866 net350
*867 net351
*868 net352
*869 net353
*870 net354
*871 net355
*872 net356
*873 net357
*874 net358
*875 net359
*876 net36
*877 net360
*878 net361
*879 net362
*880 net363
*881 net364
*882 net365
*883 net366
*884 net367
*885 net368
*886 net369
*887 net37
*888 net370
*889 net371
*890 net372
*891 net373
*892 net374
*893 net375
*894 net376
*895 net377
*896 net378
*897 net379
*898 net38
*899 net380
*900 net381
*901 net382
*902 net383
*903 net384
*904 net385
*905 net386
*906 net387
*907 net388
*908 net389
*909 net39
*910 net390
*911 net391
*912 net392
*913 net393
*914 net394
*915 net395
*916 net396
*917 net397
*918 net398
*919 net399
*920 net4
*921 net40
*922 net400
*923 net401
*924 net402
*925 net403
*926 net404
*927 net405
*928 net406
*929 net407
*930 net408
*931 net409
*932 net41
*933 net410
*934 net411
*935 net412
*936 net413
*937 net414
*938 net415
*939 net416
*940 net417
*941 net418
*942 net419
*943 net42
*944 net420
*945 net421
*946 net422
*947 net423
*948 net424
*949 net425
*950 net426
*951 net427
*952 net428
*953 net429
*954 net43
*955 net430
*956 net431
*957 net432
*958 net433
*959 net434
*960 net435
*961 net436
*962 net437
*963 net438
*964 net439
*965 net44
*966 net440
*967 net441
*968 net442
*969 net443
*970 net444
*971 net445
*972 net446
*973 net447
*974 net448
*975 net449
*976 net45
*977 net450
*978 net451
*979 net452
*980 net453
*981 net454
*982 net455
*983 net456
*984 net457
*985 net458
*986 net459
*987 net46
*988 net460
*989 net461
*990 net462
*991 net463
*992 net464
*993 net465
*994 net466
*995 net467
*996 net468
*997 net469
*998 net47
*999 net470
*1000 net471
*1001 net472
*1002 net473
*1003 net474
*1004 net475
*1005 net476
*1006 net477
*1007 net478
*1008 net479
*1009 net48
*1010 net480
*1011 net481
*1012 net482
*1013 net483
*1014 net484
*1015 net485
*1016 net486
*1017 net487
*1018 net488
*1019 net489
*1020 net49
*1021 net490
*1022 net491
*1023 net492
*1024 net493
*1025 net494
*1026 net495
*1027 net496
*1028 net497
*1029 net498
*1030 net499
*1031 net5
*1032 net50
*1033 net500
*1034 net501
*1035 net502
*1036 net503
*1037 net504
*1038 net505
*1039 net506
*1040 net507
*1041 net508
*1042 net509
*1043 net51
*1044 net510
*1045 net511
*1046 net512
*1047 net513
*1048 net514
*1049 net515
*1050 net516
*1051 net517
*1052 net518
*1053 net519
*1054 net52
*1055 net520
*1056 net521
*1057 net522
*1058 net523
*1059 net524
*1060 net525
*1061 net526
*1062 net527
*1063 net528
*1064 net529
*1065 net53
*1066 net530
*1067 net531
*1068 net532
*1069 net533
*1070 net534
*1071 net535
*1072 net536
*1073 net537
*1074 net538
*1075 net539
*1076 net54
*1077 net540
*1078 net541
*1079 net542
*1080 net543
*1081 net544
*1082 net545
*1083 net546
*1084 net547
*1085 net548
*1086 net549
*1087 net55
*1088 net550
*1089 net551
*1090 net552
*1091 net553
*1092 net554
*1093 net555
*1094 net556
*1095 net557
*1096 net558
*1097 net559
*1098 net56
*1099 net560
*1100 net561
*1101 net562
*1102 net563
*1103 net564
*1104 net565
*1105 net566
*1106 net567
*1107 net568
*1108 net569
*1109 net57
*1110 net570
*1111 net571
*1112 net572
*1113 net573
*1114 net574
*1115 net575
*1116 net576
*1117 net577
*1118 net578
*1119 net579
*1120 net58
*1121 net580
*1122 net581
*1123 net582
*1124 net583
*1125 net584
*1126 net585
*1127 net586
*1128 net587
*1129 net588
*1130 net589
*1131 net59
*1132 net590
*1133 net591
*1134 net592
*1135 net593
*1136 net594
*1137 net595
*1138 net596
*1139 net597
*1140 net598
*1141 net599
*1142 net6
*1143 net60
*1144 net600
*1145 net601
*1146 net602
*1147 net603
*1148 net604
*1149 net605
*1150 net606
*1151 net607
*1152 net608
*1153 net609
*1154 net61
*1155 net610
*1156 net611
*1157 net612
*1158 net613
*1159 net614
*1160 net615
*1161 net616
*1162 net617
*1163 net618
*1164 net619
*1165 net62
*1166 net620
*1167 net621
*1168 net622
*1169 net623
*1170 net624
*1171 net625
*1172 net626
*1173 net627
*1174 net628
*1175 net629
*1176 net63
*1177 net630
*1178 net631
*1179 net632
*1180 net633
*1181 net634
*1182 net635
*1183 net636
*1184 net637
*1185 net638
*1186 net639
*1187 net64
*1188 net640
*1189 net641
*1190 net642
*1191 net643
*1192 net644
*1193 net645
*1194 net646
*1195 net647
*1196 net648
*1197 net649
*1198 net65
*1199 net650
*1200 net651
*1201 net652
*1202 net653
*1203 net654
*1204 net655
*1205 net656
*1206 net657
*1207 net658
*1208 net659
*1209 net66
*1210 net660
*1211 net661
*1212 net662
*1213 net663
*1214 net664
*1215 net665
*1216 net666
*1217 net667
*1218 net668
*1219 net669
*1220 net67
*1221 net670
*1222 net671
*1223 net672
*1224 net673
*1225 net674
*1226 net675
*1227 net676
*1228 net677
*1229 net678
*1230 net679
*1231 net68
*1232 net680
*1233 net681
*1234 net682
*1235 net683
*1236 net684
*1237 net685
*1238 net686
*1239 net687
*1240 net688
*1241 net689
*1242 net69
*1243 net690
*1244 net691
*1245 net692
*1246 net693
*1247 net694
*1248 net695
*1249 net696
*1250 net697
*1251 net698
*1252 net699
*1253 net7
*1254 net70
*1255 net700
*1256 net701
*1257 net702
*1258 net703
*1259 net704
*1260 net705
*1261 net706
*1262 net707
*1263 net708
*1264 net709
*1265 net71
*1266 net710
*1267 net711
*1268 net712
*1269 net713
*1270 net714
*1271 net715
*1272 net716
*1273 net717
*1274 net718
*1275 net719
*1276 net72
*1277 net720
*1278 net721
*1279 net722
*1280 net723
*1281 net724
*1282 net725
*1283 net726
*1284 net727
*1285 net728
*1286 net729
*1287 net73
*1288 net730
*1289 net731
*1290 net732
*1291 net733
*1292 net734
*1293 net735
*1294 net736
*1295 net737
*1296 net738
*1297 net739
*1298 net74
*1299 net740
*1300 net741
*1301 net742
*1302 net743
*1303 net744
*1304 net745
*1305 net746
*1306 net747
*1307 net748
*1308 net749
*1309 net75
*1310 net750
*1311 net751
*1312 net752
*1313 net753
*1314 net754
*1315 net755
*1316 net756
*1317 net757
*1318 net758
*1319 net759
*1320 net76
*1321 net760
*1322 net761
*1323 net762
*1324 net763
*1325 net764
*1326 net765
*1327 net766
*1328 net767
*1329 net768
*1330 net769
*1331 net77
*1332 net770
*1333 net771
*1334 net772
*1335 net773
*1336 net774
*1337 net775
*1338 net776
*1339 net777
*1340 net778
*1341 net779
*1342 net78
*1343 net780
*1344 net781
*1345 net782
*1346 net783
*1347 net784
*1348 net785
*1349 net786
*1350 net787
*1351 net788
*1352 net789
*1353 net79
*1354 net790
*1355 net791
*1356 net792
*1357 net793
*1358 net794
*1359 net795
*1360 net796
*1361 net797
*1362 net798
*1363 net799
*1364 net8
*1365 net80
*1366 net800
*1367 net801
*1368 net802
*1369 net803
*1370 net804
*1371 net805
*1372 net806
*1373 net807
*1374 net808
*1375 net809
*1376 net81
*1377 net810
*1378 net811
*1379 net812
*1380 net813
*1381 net814
*1382 net815
*1383 net816
*1384 net817
*1385 net818
*1386 net819
*1387 net82
*1388 net820
*1389 net821
*1390 net822
*1391 net823
*1392 net824
*1393 net825
*1394 net826
*1395 net827
*1396 net828
*1397 net829
*1398 net83
*1399 net830
*1400 net831
*1401 net832
*1402 net833
*1403 net834
*1404 net835
*1405 net836
*1406 net837
*1407 net838
*1408 net839
*1409 net84
*1410 net840
*1411 net841
*1412 net842
*1413 net843
*1414 net844
*1415 net845
*1416 net846
*1417 net847
*1418 net848
*1419 net849
*1420 net85
*1421 net850
*1422 net851
*1423 net852
*1424 net853
*1425 net854
*1426 net855
*1427 net856
*1428 net857
*1429 net858
*1430 net859
*1431 net86
*1432 net860
*1433 net861
*1434 net862
*1435 net863
*1436 net864
*1437 net865
*1438 net866
*1439 net867
*1440 net868
*1441 net869
*1442 net87
*1443 net870
*1444 net871
*1445 net872
*1446 net873
*1447 net874
*1448 net875
*1449 net876
*1450 net877
*1451 net878
*1452 net879
*1453 net88
*1454 net880
*1455 net881
*1456 net882
*1457 net883
*1458 net884
*1459 net885
*1460 net886
*1461 net887
*1462 net888
*1463 net889
*1464 net89
*1465 net890
*1466 net891
*1467 net892
*1468 net893
*1469 net894
*1470 net895
*1471 net896
*1472 net897
*1473 net898
*1474 net899
*1475 net9
*1476 net90
*1477 net900
*1478 net901
*1479 net902
*1480 net903
*1481 net904
*1482 net905
*1483 net906
*1484 net907
*1485 net908
*1486 net909
*1487 net91
*1488 net910
*1489 net911
*1490 net912
*1491 net913
*1492 net914
*1493 net915
*1494 net916
*1495 net917
*1496 net918
*1497 net919
*1498 net92
*1499 net920
*1500 net921
*1501 net922
*1502 net923
*1503 net924
*1504 net925
*1505 net926
*1506 net927
*1507 net928
*1508 net929
*1509 net93
*1510 net930
*1511 net931
*1512 net932
*1513 net933
*1514 net934
*1515 net935
*1516 net936
*1517 net937
*1518 net938
*1519 net939
*1520 net94
*1521 net940
*1522 net941
*1523 net942
*1524 net943
*1525 net944
*1526 net945
*1527 net946
*1528 net947
*1529 net948
*1530 net949
*1531 net95
*1532 net950
*1533 net951
*1534 net952
*1535 net953
*1536 net954
*1537 net955
*1538 net956
*1539 net957
*1540 net958
*1541 net959
*1542 net96
*1543 net960
*1544 net961
*1545 net962
*1546 net963
*1547 net964
*1548 net965
*1549 net966
*1550 net967
*1551 net968
*1552 net969
*1553 net97
*1554 net970
*1555 net971
*1556 net972
*1557 net973
*1558 net974
*1559 net975
*1560 net976
*1561 net977
*1562 net978
*1563 net979
*1564 net98
*1565 net980
*1566 net981
*1567 net982
*1568 net983
*1569 net984
*1570 net985
*1571 net986
*1572 net987
*1573 net988
*1574 net989
*1575 net99
*1576 net990
*1577 net991
*1578 net992
*1579 net993
*1580 net994
*1581 net995
*1582 net996
*1583 net997
*1584 net998
*1585 net999
*1586 ANTENNA_1
*1587 ANTENNA_2
*1588 ANTENNA_3
*1589 ANTENNA_4
*1590 ANTENNA_5
*1591 ANTENNA_c100_A
*1592 ANTENNA_c100_D_N
*1593 ANTENNA_c102_A
*1594 ANTENNA_c104_B
*1595 ANTENNA_c104_X
*1596 ANTENNA_c105_C
*1597 ANTENNA_c106_X
*1598 ANTENNA_c107_A
*1599 ANTENNA_c107_B
*1600 ANTENNA_c107_X
*1601 ANTENNA_c108_A1
*1602 ANTENNA_c108_A2
*1603 ANTENNA_c108_A3
*1604 ANTENNA_c108_S0
*1605 ANTENNA_c108_X
*1606 ANTENNA_c109_A
*1607 ANTENNA_c109_B
*1608 ANTENNA_c110_A
*1609 ANTENNA_c110_B
*1610 ANTENNA_c112_A1
*1611 ANTENNA_c112_B1
*1612 ANTENNA_c112_X
*1613 ANTENNA_c114_A
*1614 ANTENNA_c114_B
*1615 ANTENNA_c114_X
*1616 ANTENNA_c115_B
*1617 ANTENNA_c115_C
*1618 ANTENNA_c116_B
*1619 ANTENNA_c117_B
*1620 ANTENNA_c118_A
*1621 ANTENNA_c118_B
*1622 ANTENNA_c118_X
*1623 ANTENNA_c119_A1
*1624 ANTENNA_c119_B1
*1625 ANTENNA_c119_D1
*1626 ANTENNA_c120_A
*1627 ANTENNA_c120_C
*1628 ANTENNA_c122_A
*1629 ANTENNA_c123_A1
*1630 ANTENNA_c123_B1
*1631 ANTENNA_c125_A2
*1632 ANTENNA_c125_B1
*1633 ANTENNA_c126_A1
*1634 ANTENNA_c126_C1
*1635 ANTENNA_c127_B
*1636 ANTENNA_c128_B
*1637 ANTENNA_c129_B1
*1638 ANTENNA_c129_C1
*1639 ANTENNA_c130_B
*1640 ANTENNA_c130_X
*1641 ANTENNA_c131_A2
*1642 ANTENNA_c131_S0
*1643 ANTENNA_c132_A
*1644 ANTENNA_c132_B
*1645 ANTENNA_c132_C
*1646 ANTENNA_c132_X
*1647 ANTENNA_c133_A
*1648 ANTENNA_c133_B
*1649 ANTENNA_c133_C
*1650 ANTENNA_c134_B
*1651 ANTENNA_c134_X
*1652 ANTENNA_c135_A
*1653 ANTENNA_c135_B
*1654 ANTENNA_c135_X
*1655 ANTENNA_c136_A
*1656 ANTENNA_c136_B
*1657 ANTENNA_c137_A
*1658 ANTENNA_c137_B
*1659 ANTENNA_c137_X
*1660 ANTENNA_c138_A
*1661 ANTENNA_c138_C
*1662 ANTENNA_c138_X
*1663 ANTENNA_c139_A
*1664 ANTENNA_c139_B
*1665 ANTENNA_c139_C
*1666 ANTENNA_c139_X
*1667 ANTENNA_c140_A
*1668 ANTENNA_c140_B
*1669 ANTENNA_c140_C
*1670 ANTENNA_c140_X
*1671 ANTENNA_c141_A
*1672 ANTENNA_c141_B
*1673 ANTENNA_c141_D_N
*1674 ANTENNA_c142_B
*1675 ANTENNA_c142_C
*1676 ANTENNA_c143_C
*1677 ANTENNA_c143_X
*1678 ANTENNA_c144_A
*1679 ANTENNA_c144_B
*1680 ANTENNA_c144_D_N
*1681 ANTENNA_c144_X
*1682 ANTENNA_c145_A
*1683 ANTENNA_c145_B
*1684 ANTENNA_c146_A2
*1685 ANTENNA_c146_B1
*1686 ANTENNA_c146_C1
*1687 ANTENNA_c146_X
*1688 ANTENNA_c147_A
*1689 ANTENNA_c147_B
*1690 ANTENNA_c147_C_N
*1691 ANTENNA_c147_D_N
*1692 ANTENNA_c148_A2
*1693 ANTENNA_c148_B1
*1694 ANTENNA_c148_C1
*1695 ANTENNA_c148_X
*1696 ANTENNA_c149_A2
*1697 ANTENNA_c149_S0
*1698 ANTENNA_c149_S1
*1699 ANTENNA_c150_A0
*1700 ANTENNA_c150_A1
*1701 ANTENNA_c150_A2
*1702 ANTENNA_c150_S0
*1703 ANTENNA_c150_S1
*1704 ANTENNA_c150_X
*1705 ANTENNA_c151_A1
*1706 ANTENNA_c151_A2
*1707 ANTENNA_c151_A3
*1708 ANTENNA_c151_S0
*1709 ANTENNA_c151_S1
*1710 ANTENNA_c151_X
*1711 ANTENNA_c152_A
*1712 ANTENNA_c152_B
*1713 ANTENNA_c152_C_N
*1714 ANTENNA_c152_D_N
*1715 ANTENNA_c152_X
*1716 ANTENNA_c153_A0
*1717 ANTENNA_c153_A2
*1718 ANTENNA_c153_A3
*1719 ANTENNA_c153_S0
*1720 ANTENNA_c153_S1
*1721 ANTENNA_c154_A
*1722 ANTENNA_c154_B
*1723 ANTENNA_c154_C
*1724 ANTENNA_c155_A
*1725 ANTENNA_c155_B
*1726 ANTENNA_c155_C
*1727 ANTENNA_c155_X
*1728 ANTENNA_c156_A
*1729 ANTENNA_c156_C
*1730 ANTENNA_c157_A
*1731 ANTENNA_c157_B
*1732 ANTENNA_c157_X
*1733 ANTENNA_c158_A
*1734 ANTENNA_c158_C
*1735 ANTENNA_c158_X
*1736 ANTENNA_c159_A
*1737 ANTENNA_c159_C
*1738 ANTENNA_c160_A0
*1739 ANTENNA_c160_A3
*1740 ANTENNA_c160_S1
*1741 ANTENNA_c160_X
*1742 ANTENNA_c161_A1
*1743 ANTENNA_c161_C1
*1744 ANTENNA_c161_D1
*1745 ANTENNA_c161_X
*1746 ANTENNA_c162_X
*1747 ANTENNA_c163_A
*1748 ANTENNA_c163_C
*1749 ANTENNA_c164_A
*1750 ANTENNA_c164_B
*1751 ANTENNA_c164_C
*1752 ANTENNA_c164_X
*1753 ANTENNA_c165_B
*1754 ANTENNA_c165_C
*1755 ANTENNA_c165_X
*1756 ANTENNA_c166_A1
*1757 ANTENNA_c166_A2
*1758 ANTENNA_c166_B1
*1759 ANTENNA_c166_X
*1760 ANTENNA_c167_A
*1761 ANTENNA_c167_X
*1762 ANTENNA_c168_A
*1763 ANTENNA_c168_C
*1764 ANTENNA_c168_X
*1765 ANTENNA_c169_A1
*1766 ANTENNA_c169_A2
*1767 ANTENNA_c169_C1
*1768 ANTENNA_c169_X
*1769 ANTENNA_c170_A2
*1770 ANTENNA_c170_S0
*1771 ANTENNA_c170_S1
*1772 ANTENNA_c170_X
*1773 ANTENNA_c171_A1
*1774 ANTENNA_c171_B1
*1775 ANTENNA_c171_C1
*1776 ANTENNA_c172_A2
*1777 ANTENNA_c172_B1
*1778 ANTENNA_c172_D1
*1779 ANTENNA_c172_X
*1780 ANTENNA_c173_A1
*1781 ANTENNA_c173_A2
*1782 ANTENNA_c173_D1
*1783 ANTENNA_c173_X
*1784 ANTENNA_c174_A1
*1785 ANTENNA_c174_A2
*1786 ANTENNA_c174_C1
*1787 ANTENNA_c174_D1
*1788 ANTENNA_c175_A1
*1789 ANTENNA_c175_C1
*1790 ANTENNA_c175_D1
*1791 ANTENNA_c175_X
*1792 ANTENNA_c176_B
*1793 ANTENNA_c177_A
*1794 ANTENNA_c177_B
*1795 ANTENNA_c177_D_N
*1796 ANTENNA_c178_A
*1797 ANTENNA_c178_B
*1798 ANTENNA_c178_X
*1799 ANTENNA_c179_B
*1800 ANTENNA_c179_C_N
*1801 ANTENNA_c179_D_N
*1802 ANTENNA_c179_X
*1803 ANTENNA_c180_A1
*1804 ANTENNA_c180_A2
*1805 ANTENNA_c180_B1
*1806 ANTENNA_c180_C1
*1807 ANTENNA_c180_D1
*1808 ANTENNA_c180_X
*1809 ANTENNA_c181_B
*1810 ANTENNA_c181_C_N
*1811 ANTENNA_c181_D_N
*1812 ANTENNA_c181_X
*1813 ANTENNA_c182_A0
*1814 ANTENNA_c182_A1
*1815 ANTENNA_c182_A2
*1816 ANTENNA_c182_A3
*1817 ANTENNA_c182_S0
*1818 ANTENNA_c182_S1
*1819 ANTENNA_c183_B
*1820 ANTENNA_c183_C_N
*1821 ANTENNA_c184_A
*1822 ANTENNA_c184_X
*1823 ANTENNA_c185_A
*1824 ANTENNA_c185_B
*1825 ANTENNA_c185_C
*1826 ANTENNA_c186_D_N
*1827 ANTENNA_c186_X
*1828 ANTENNA_c187_A
*1829 ANTENNA_c187_C
*1830 ANTENNA_c188_B1
*1831 ANTENNA_c188_C1
*1832 ANTENNA_c188_D1
*1833 ANTENNA_c188_X
*1834 ANTENNA_c189_A
*1835 ANTENNA_c189_C
*1836 ANTENNA_c189_X
*1837 ANTENNA_c190_A1
*1838 ANTENNA_c190_A2
*1839 ANTENNA_c190_B1
*1840 ANTENNA_c190_C1
*1841 ANTENNA_c190_X
*1842 ANTENNA_c191_A
*1843 ANTENNA_c191_C
*1844 ANTENNA_c192_B
*1845 ANTENNA_c192_C_N
*1846 ANTENNA_c192_X
*1847 ANTENNA_c193_A0
*1848 ANTENNA_c193_A1