*SPEF "ieee 1481-1999"
*DESIGN "netlist_0"
*DATE "13:11:40 Friday August 16, 2024"
*VENDOR "The OpenROAD Project"
*PROGRAM "OpenROAD"
*VERSION "d423155d69de7f683a23f6916ead418a615ad4ad"
*DESIGN_FLOW "NAME_SCOPE LOCAL" "PIN_CAP NONE"
*DIVIDER /
*DELIMITER :
*BUS_DELIMITER []
*T_UNIT 1 NS
*C_UNIT 1 PF
*R_UNIT 1 OHM
*L_UNIT 1 HENRY

*NAME_MAP
*3 clk
*4 in0
*5 in1
*6 in10
*7 in11
*8 in12
*9 in13
*10 in14
*11 in15
*12 in16
*13 in17
*14 in18
*15 in19
*16 in2
*17 in20
*18 in21
*19 in22
*20 in23
*21 in24
*22 in25
*23 in26
*24 in27
*25 in28
*26 in29
*27 in3
*28 in30
*29 in31
*30 in32
*31 in33
*32 in34
*33 in35
*34 in36
*35 in37
*36 in38
*37 in39
*38 in4
*39 in40
*40 in41
*41 in42
*42 in43
*43 in44
*44 in45
*45 in46
*46 in47
*47 in48
*48 in49
*49 in5
*50 in50
*51 in51
*52 in52
*53 in53
*54 in54
*55 in55
*56 in56
*57 in57
*58 in58
*59 in59
*60 in6
*61 in60
*62 in61
*63 in62
*64 in63
*65 in64
*66 in65
*67 in66
*68 in67
*69 in68
*70 in69
*71 in7
*72 in70
*73 in71
*74 in72
*75 in73
*76 in74
*77 in75
*78 in76
*79 in77
*80 in78
*81 in79
*82 in8
*83 in80
*84 in81
*85 in82
*86 in83
*87 in84
*88 in85
*89 in86
*90 in87
*91 in88
*92 in89
*93 in9
*94 in90
*95 in91
*96 in92
*97 in93
*98 in94
*99 in95
*100 in96
*101 in97
*102 in98
*103 in99
*104 out0
*105 out1
*106 out10
*107 out11
*108 out12
*109 out13
*110 out14
*111 out15
*112 out16
*113 out17
*114 out18
*115 out19
*116 out2
*117 out20
*118 out21
*119 out22
*120 out23
*121 out24
*122 out25
*123 out26
*124 out27
*125 out28
*126 out29
*127 out3
*128 out30
*129 out31
*130 out32
*131 out33
*132 out34
*133 out35
*134 out36
*135 out37
*136 out38
*137 out39
*138 out4
*139 out40
*140 out41
*141 out42
*142 out43
*143 out44
*144 out45
*145 out46
*146 out47
*147 out48
*148 out49
*149 out5
*150 out50
*151 out51
*152 out52
*153 out53
*154 out54
*155 out55
*156 out56
*157 out57
*158 out58
*159 out59
*160 out6
*161 out60
*162 out61
*163 out62
*164 out63
*165 out64
*166 out65
*167 out66
*168 out67
*169 out68
*170 out69
*171 out7
*172 out70
*173 out71
*174 out72
*175 out73
*176 out74
*177 out75
*178 out76
*179 out77
*180 out78
*181 out79
*182 out8
*183 out80
*184 out81
*185 out82
*186 out83
*187 out84
*188 out85
*189 out86
*190 out87
*191 out88
*192 out89
*193 out9
*194 out90
*195 out91
*196 out92
*197 out93
*198 out94
*199 out95
*200 out96
*201 out97
*202 out98
*203 out99
*204 rst
*205 clknet_0_clk
*206 clknet_0_net111
*207 clknet_0_net112
*208 clknet_0_net114
*209 clknet_0_net115
*210 clknet_0_net116
*211 clknet_0_net122
*212 clknet_0_net131
*213 clknet_0_net132
*214 clknet_0_net133
*215 clknet_0_net136
*216 clknet_0_net137
*217 clknet_0_net141
*218 clknet_0_net142
*219 clknet_0_net147
*220 clknet_0_net148
*221 clknet_0_net153
*222 clknet_0_net156
*223 clknet_0_net158
*224 clknet_0_net159
*225 clknet_0_net160
*226 clknet_0_net165
*227 clknet_0_net178
*228 clknet_0_net194
*229 clknet_0_net204
*230 clknet_0_net207
*231 clknet_0_net220
*232 clknet_0_net222
*233 clknet_0_net226
*234 clknet_0_net229
*235 clknet_0_net233
*236 clknet_0_net234
*237 clknet_0_net240
*238 clknet_0_net241
*239 clknet_0_net243
*240 clknet_0_net247
*241 clknet_0_net248
*242 clknet_0_net253
*243 clknet_0_net254
*244 clknet_0_net255
*245 clknet_0_net257
*246 clknet_0_net258
*247 clknet_0_net260
*248 clknet_0_net261
*249 clknet_0_net278
*250 clknet_0_net280
*251 clknet_0_net282
*252 clknet_0_net291
*253 clknet_0_net295
*254 clknet_0_net296
*255 clknet_0_net297
*256 clknet_0_net298
*257 clknet_0_net299
*258 clknet_0_net310
*259 clknet_0_net312
*260 clknet_0_net313
*261 clknet_0_net324
*262 clknet_0_net329
*263 clknet_0_net331
*264 clknet_0_net337
*265 clknet_0_net339
*266 clknet_0_net340
*267 clknet_0_net342
*268 clknet_0_net346
*269 clknet_0_net348
*270 clknet_0_net349
*271 clknet_0_net357
*272 clknet_0_net363
*273 clknet_0_net367
*274 clknet_0_net368
*275 clknet_0_net372
*276 clknet_0_net388
*277 clknet_0_net396
*278 clknet_0_net397
*279 clknet_0_net399
*280 clknet_0_net405
*281 clknet_0_net408
*282 clknet_0_net409
*283 clknet_0_net411
*284 clknet_0_net415
*285 clknet_0_net416
*286 clknet_0_net417
*287 clknet_0_net418
*288 clknet_0_net422
*289 clknet_0_net428
*290 clknet_0_net429
*291 clknet_0_net442
*292 clknet_0_net444
*293 clknet_0_net446
*294 clknet_0_net452
*295 clknet_0_net467
*296 clknet_0_net47
*297 clknet_0_net476
*298 clknet_0_net528
*299 clknet_0_net529
*300 clknet_0_net54
*301 clknet_0_net542
*302 clknet_0_net543
*303 clknet_0_net544
*304 clknet_0_net56
*305 clknet_0_net562
*306 clknet_0_net563
*307 clknet_0_net57
*308 clknet_0_net580
*309 clknet_0_net581
*310 clknet_0_net59
*311 clknet_0_net596
*312 clknet_0_net597
*313 clknet_0_net598
*314 clknet_0_net61
*315 clknet_0_net616
*316 clknet_0_net617
*317 clknet_0_net618
*318 clknet_0_net62
*319 clknet_0_net637
*320 clknet_0_net638
*321 clknet_0_net64
*322 clknet_0_net657
*323 clknet_0_net675
*324 clknet_0_net676
*325 clknet_0_net696
*326 clknet_0_net73
*327 clknet_0_net732
*328 clknet_0_net733
*329 clknet_0_net734
*330 clknet_0_net75
*331 clknet_0_net752
*332 clknet_0_net753
*333 clknet_0_net754
*334 clknet_0_net78
*335 clknet_0_net83
*336 clknet_0_net870
*337 clknet_0_net882
*338 clknet_0_net883
*339 clknet_0_net884
*340 clknet_0_net885
*341 clknet_0_net888
*342 clknet_0_net890
*343 clknet_0_net893
*344 clknet_0_net897
*345 clknet_0_net898
*346 clknet_0_net899
*347 clknet_0_net902
*348 clknet_0_net904
*349 clknet_0_net908
*350 clknet_0_net916
*351 clknet_0_net918
*352 clknet_0_net920
*353 clknet_0_net923
*354 clknet_0_net927
*355 clknet_0_net931
*356 clknet_1_0__leaf_net111
*357 clknet_1_0__leaf_net112
*358 clknet_1_0__leaf_net114
*359 clknet_1_0__leaf_net115
*360 clknet_1_0__leaf_net116
*361 clknet_1_0__leaf_net122
*362 clknet_1_0__leaf_net131
*363 clknet_1_0__leaf_net132
*364 clknet_1_0__leaf_net133
*365 clknet_1_0__leaf_net136
*366 clknet_1_0__leaf_net137
*367 clknet_1_0__leaf_net141
*368 clknet_1_0__leaf_net142
*369 clknet_1_0__leaf_net147
*370 clknet_1_0__leaf_net148
*371 clknet_1_0__leaf_net153
*372 clknet_1_0__leaf_net156
*373 clknet_1_0__leaf_net158
*374 clknet_1_0__leaf_net159
*375 clknet_1_0__leaf_net160
*376 clknet_1_0__leaf_net165
*377 clknet_1_0__leaf_net178
*378 clknet_1_0__leaf_net194
*379 clknet_1_0__leaf_net204
*380 clknet_1_0__leaf_net207
*381 clknet_1_0__leaf_net220
*382 clknet_1_0__leaf_net222
*383 clknet_1_0__leaf_net226
*384 clknet_1_0__leaf_net229
*385 clknet_1_0__leaf_net233
*386 clknet_1_0__leaf_net234
*387 clknet_1_0__leaf_net240
*388 clknet_1_0__leaf_net241
*389 clknet_1_0__leaf_net243
*390 clknet_1_0__leaf_net247
*391 clknet_1_0__leaf_net248
*392 clknet_1_0__leaf_net253
*393 clknet_1_0__leaf_net254
*394 clknet_1_0__leaf_net255
*395 clknet_1_0__leaf_net257
*396 clknet_1_0__leaf_net258
*397 clknet_1_0__leaf_net260
*398 clknet_1_0__leaf_net261
*399 clknet_1_0__leaf_net278
*400 clknet_1_0__leaf_net280
*401 clknet_1_0__leaf_net282
*402 clknet_1_0__leaf_net291
*403 clknet_1_0__leaf_net295
*404 clknet_1_0__leaf_net296
*405 clknet_1_0__leaf_net297
*406 clknet_1_0__leaf_net298
*407 clknet_1_0__leaf_net299
*408 clknet_1_0__leaf_net310
*409 clknet_1_0__leaf_net312
*410 clknet_1_0__leaf_net313
*411 clknet_1_0__leaf_net324
*412 clknet_1_0__leaf_net329
*413 clknet_1_0__leaf_net331
*414 clknet_1_0__leaf_net337
*415 clknet_1_0__leaf_net339
*416 clknet_1_0__leaf_net340
*417 clknet_1_0__leaf_net342
*418 clknet_1_0__leaf_net346
*419 clknet_1_0__leaf_net348
*420 clknet_1_0__leaf_net349
*421 clknet_1_0__leaf_net357
*422 clknet_1_0__leaf_net363
*423 clknet_1_0__leaf_net367
*424 clknet_1_0__leaf_net368
*425 clknet_1_0__leaf_net372
*426 clknet_1_0__leaf_net388
*427 clknet_1_0__leaf_net396
*428 clknet_1_0__leaf_net397
*429 clknet_1_0__leaf_net399
*430 clknet_1_0__leaf_net405
*431 clknet_1_0__leaf_net408
*432 clknet_1_0__leaf_net409
*433 clknet_1_0__leaf_net411
*434 clknet_1_0__leaf_net415
*435 clknet_1_0__leaf_net416
*436 clknet_1_0__leaf_net417
*437 clknet_1_0__leaf_net418
*438 clknet_1_0__leaf_net422
*439 clknet_1_0__leaf_net428
*440 clknet_1_0__leaf_net429
*441 clknet_1_0__leaf_net442
*442 clknet_1_0__leaf_net444
*443 clknet_1_0__leaf_net446
*444 clknet_1_0__leaf_net452
*445 clknet_1_0__leaf_net467
*446 clknet_1_0__leaf_net47
*447 clknet_1_0__leaf_net476
*448 clknet_1_0__leaf_net528
*449 clknet_1_0__leaf_net529
*450 clknet_1_0__leaf_net54
*451 clknet_1_0__leaf_net542
*452 clknet_1_0__leaf_net543
*453 clknet_1_0__leaf_net544
*454 clknet_1_0__leaf_net56
*455 clknet_1_0__leaf_net562
*456 clknet_1_0__leaf_net563
*457 clknet_1_0__leaf_net57
*458 clknet_1_0__leaf_net580
*459 clknet_1_0__leaf_net581
*460 clknet_1_0__leaf_net59
*461 clknet_1_0__leaf_net596
*462 clknet_1_0__leaf_net597
*463 clknet_1_0__leaf_net598
*464 clknet_1_0__leaf_net61
*465 clknet_1_0__leaf_net616
*466 clknet_1_0__leaf_net617
*467 clknet_1_0__leaf_net618
*468 clknet_1_0__leaf_net62
*469 clknet_1_0__leaf_net637
*470 clknet_1_0__leaf_net638
*471 clknet_1_0__leaf_net64
*472 clknet_1_0__leaf_net657
*473 clknet_1_0__leaf_net675
*474 clknet_1_0__leaf_net676
*475 clknet_1_0__leaf_net696
*476 clknet_1_0__leaf_net73
*477 clknet_1_0__leaf_net732
*478 clknet_1_0__leaf_net733
*479 clknet_1_0__leaf_net734
*480 clknet_1_0__leaf_net75
*481 clknet_1_0__leaf_net752
*482 clknet_1_0__leaf_net753
*483 clknet_1_0__leaf_net754
*484 clknet_1_0__leaf_net78
*485 clknet_1_0__leaf_net83
*486 clknet_1_0__leaf_net870
*487 clknet_1_0__leaf_net882
*488 clknet_1_0__leaf_net883
*489 clknet_1_0__leaf_net884
*490 clknet_1_0__leaf_net885
*491 clknet_1_0__leaf_net888
*492 clknet_1_0__leaf_net890
*493 clknet_1_0__leaf_net893
*494 clknet_1_0__leaf_net897
*495 clknet_1_0__leaf_net898
*496 clknet_1_0__leaf_net899
*497 clknet_1_0__leaf_net902
*498 clknet_1_0__leaf_net904
*499 clknet_1_0__leaf_net908
*500 clknet_1_0__leaf_net916
*501 clknet_1_0__leaf_net918
*502 clknet_1_0__leaf_net920
*503 clknet_1_0__leaf_net923
*504 clknet_1_0__leaf_net927
*505 clknet_1_0__leaf_net931
*506 clknet_1_1__leaf_net111
*507 clknet_1_1__leaf_net112
*508 clknet_1_1__leaf_net114
*509 clknet_1_1__leaf_net115
*510 clknet_1_1__leaf_net116
*511 clknet_1_1__leaf_net122
*512 clknet_1_1__leaf_net131
*513 clknet_1_1__leaf_net132
*514 clknet_1_1__leaf_net133
*515 clknet_1_1__leaf_net136
*516 clknet_1_1__leaf_net137
*517 clknet_1_1__leaf_net141
*518 clknet_1_1__leaf_net142
*519 clknet_1_1__leaf_net147
*520 clknet_1_1__leaf_net148
*521 clknet_1_1__leaf_net153
*522 clknet_1_1__leaf_net156
*523 clknet_1_1__leaf_net158
*524 clknet_1_1__leaf_net159
*525 clknet_1_1__leaf_net160
*526 clknet_1_1__leaf_net165
*527 clknet_1_1__leaf_net178
*528 clknet_1_1__leaf_net194
*529 clknet_1_1__leaf_net204
*530 clknet_1_1__leaf_net207
*531 clknet_1_1__leaf_net220
*532 clknet_1_1__leaf_net222
*533 clknet_1_1__leaf_net226
*534 clknet_1_1__leaf_net229
*535 clknet_1_1__leaf_net233
*536 clknet_1_1__leaf_net234
*537 clknet_1_1__leaf_net240
*538 clknet_1_1__leaf_net241
*539 clknet_1_1__leaf_net243
*540 clknet_1_1__leaf_net247
*541 clknet_1_1__leaf_net248
*542 clknet_1_1__leaf_net253
*543 clknet_1_1__leaf_net254
*544 clknet_1_1__leaf_net255
*545 clknet_1_1__leaf_net257
*546 clknet_1_1__leaf_net258
*547 clknet_1_1__leaf_net260
*548 clknet_1_1__leaf_net261
*549 clknet_1_1__leaf_net278
*550 clknet_1_1__leaf_net280
*551 clknet_1_1__leaf_net282
*552 clknet_1_1__leaf_net291
*553 clknet_1_1__leaf_net295
*554 clknet_1_1__leaf_net296
*555 clknet_1_1__leaf_net297
*556 clknet_1_1__leaf_net298
*557 clknet_1_1__leaf_net299
*558 clknet_1_1__leaf_net310
*559 clknet_1_1__leaf_net312
*560 clknet_1_1__leaf_net313
*561 clknet_1_1__leaf_net324
*562 clknet_1_1__leaf_net329
*563 clknet_1_1__leaf_net331
*564 clknet_1_1__leaf_net337
*565 clknet_1_1__leaf_net339
*566 clknet_1_1__leaf_net340
*567 clknet_1_1__leaf_net342
*568 clknet_1_1__leaf_net346
*569 clknet_1_1__leaf_net348
*570 clknet_1_1__leaf_net349
*571 clknet_1_1__leaf_net357
*572 clknet_1_1__leaf_net363
*573 clknet_1_1__leaf_net367
*574 clknet_1_1__leaf_net368
*575 clknet_1_1__leaf_net372
*576 clknet_1_1__leaf_net388
*577 clknet_1_1__leaf_net396
*578 clknet_1_1__leaf_net397
*579 clknet_1_1__leaf_net399
*580 clknet_1_1__leaf_net405
*581 clknet_1_1__leaf_net408
*582 clknet_1_1__leaf_net409
*583 clknet_1_1__leaf_net411
*584 clknet_1_1__leaf_net415
*585 clknet_1_1__leaf_net416
*586 clknet_1_1__leaf_net417
*587 clknet_1_1__leaf_net418
*588 clknet_1_1__leaf_net422
*589 clknet_1_1__leaf_net428
*590 clknet_1_1__leaf_net429
*591 clknet_1_1__leaf_net442
*592 clknet_1_1__leaf_net444
*593 clknet_1_1__leaf_net446
*594 clknet_1_1__leaf_net452
*595 clknet_1_1__leaf_net467
*596 clknet_1_1__leaf_net47
*597 clknet_1_1__leaf_net476
*598 clknet_1_1__leaf_net528
*599 clknet_1_1__leaf_net529
*600 clknet_1_1__leaf_net54
*601 clknet_1_1__leaf_net542
*602 clknet_1_1__leaf_net543
*603 clknet_1_1__leaf_net544
*604 clknet_1_1__leaf_net56
*605 clknet_1_1__leaf_net562
*606 clknet_1_1__leaf_net563
*607 clknet_1_1__leaf_net57
*608 clknet_1_1__leaf_net580
*609 clknet_1_1__leaf_net581
*610 clknet_1_1__leaf_net59
*611 clknet_1_1__leaf_net596
*612 clknet_1_1__leaf_net597
*613 clknet_1_1__leaf_net598
*614 clknet_1_1__leaf_net61
*615 clknet_1_1__leaf_net616
*616 clknet_1_1__leaf_net617
*617 clknet_1_1__leaf_net618
*618 clknet_1_1__leaf_net62
*619 clknet_1_1__leaf_net637
*620 clknet_1_1__leaf_net638
*621 clknet_1_1__leaf_net64
*622 clknet_1_1__leaf_net657
*623 clknet_1_1__leaf_net675
*624 clknet_1_1__leaf_net676
*625 clknet_1_1__leaf_net696
*626 clknet_1_1__leaf_net73
*627 clknet_1_1__leaf_net732
*628 clknet_1_1__leaf_net733
*629 clknet_1_1__leaf_net734
*630 clknet_1_1__leaf_net75
*631 clknet_1_1__leaf_net752
*632 clknet_1_1__leaf_net753
*633 clknet_1_1__leaf_net754
*634 clknet_1_1__leaf_net78
*635 clknet_1_1__leaf_net83
*636 clknet_1_1__leaf_net870
*637 clknet_1_1__leaf_net882
*638 clknet_1_1__leaf_net883
*639 clknet_1_1__leaf_net884
*640 clknet_1_1__leaf_net885
*641 clknet_1_1__leaf_net888
*642 clknet_1_1__leaf_net890
*643 clknet_1_1__leaf_net893
*644 clknet_1_1__leaf_net897
*645 clknet_1_1__leaf_net898
*646 clknet_1_1__leaf_net899
*647 clknet_1_1__leaf_net902
*648 clknet_1_1__leaf_net904
*649 clknet_1_1__leaf_net908
*650 clknet_1_1__leaf_net916
*651 clknet_1_1__leaf_net918
*652 clknet_1_1__leaf_net920
*653 clknet_1_1__leaf_net923
*654 clknet_1_1__leaf_net927
*655 clknet_1_1__leaf_net931
*656 clknet_2_0__leaf_clk
*657 clknet_2_1__leaf_clk
*658 clknet_2_2__leaf_clk
*659 clknet_2_3__leaf_clk
*660 clknet_leaf_0_clk
*661 clknet_leaf_11_clk
*662 clknet_leaf_12_clk
*663 clknet_leaf_13_clk
*664 clknet_leaf_14_clk
*665 clknet_leaf_15_clk
*666 clknet_leaf_16_clk
*667 clknet_leaf_17_clk
*668 clknet_leaf_18_clk
*669 clknet_leaf_19_clk
*670 clknet_leaf_1_clk
*671 clknet_leaf_20_clk
*672 clknet_leaf_21_clk
*673 clknet_leaf_22_clk
*674 clknet_leaf_24_clk
*675 clknet_leaf_25_clk
*676 clknet_leaf_26_clk
*677 clknet_leaf_27_clk
*678 clknet_leaf_28_clk
*679 clknet_leaf_29_clk
*680 clknet_leaf_2_clk
*681 clknet_leaf_30_clk
*682 clknet_leaf_31_clk
*683 clknet_leaf_32_clk
*684 clknet_leaf_33_clk
*685 clknet_leaf_34_clk
*686 clknet_leaf_35_clk
*687 clknet_leaf_36_clk
*688 clknet_leaf_37_clk
*689 clknet_leaf_38_clk
*690 clknet_leaf_39_clk
*691 clknet_leaf_3_clk
*692 clknet_leaf_40_clk
*693 clknet_leaf_41_clk
*694 clknet_leaf_42_clk
*695 clknet_leaf_4_clk
*696 clknet_leaf_5_clk
*697 clknet_leaf_6_clk
*698 clknet_leaf_7_clk
*699 clknet_leaf_8_clk
*700 clknet_leaf_9_clk
*701 net0
*702 net1
*703 net10
*704 net100
*705 net1000
*706 net1001
*707 net1002
*708 net1003
*709 net1004
*710 net1005
*711 net1006
*712 net1007
*713 net1008
*714 net1009
*715 net101
*716 net1010
*717 net1011
*718 net1012
*719 net1013
*720 net1014
*721 net1015
*722 net1016
*723 net1017
*724 net1018
*725 net1019
*726 net102
*727 net1020
*728 net1021
*729 net1022
*730 net1023
*731 net1024
*732 net1025
*733 net1026
*734 net1027
*735 net1028
*736 net1029
*737 net103
*738 net1030
*739 net1031
*740 net1032
*741 net1033
*742 net1034
*743 net1035
*744 net1036
*745 net1037
*746 net1038
*747 net1039
*748 net104
*749 net1040
*750 net1041
*751 net1042
*752 net1043
*753 net1044
*754 net1045
*755 net1046
*756 net1047
*757 net1048
*758 net1049
*759 net105
*760 net1050
*761 net1051
*762 net1052
*763 net1053
*764 net1054
*765 net1055
*766 net1056
*767 net1057
*768 net1058
*769 net1059
*770 net106
*771 net1060
*772 net1061
*773 net1062
*774 net1063
*775 net1064
*776 net1065
*777 net1066
*778 net1067
*779 net1068
*780 net1069
*781 net107
*782 net1070
*783 net1071
*784 net1072
*785 net1073
*786 net1074
*787 net1075
*788 net1076
*789 net1077
*790 net1078
*791 net1079
*792 net108
*793 net1080
*794 net1081
*795 net1082
*796 net1083
*797 net1084
*798 net1085
*799 net1086
*800 net1087
*801 net1088
*802 net1089
*803 net109
*804 net1090
*805 net1091
*806 net1092
*807 net1093
*808 net1094
*809 net1095
*810 net1096
*811 net1097
*812 net1098
*813 net1099
*814 net11
*815 net110
*816 net1100
*817 net111
*818 net112
*819 net113
*820 net114
*821 net115
*822 net116
*823 net117
*824 net118
*825 net119
*826 net12
*827 net120
*828 net121
*829 net122
*830 net123
*831 net124
*832 net125
*833 net126
*834 net127
*835 net128
*836 net129
*837 net13
*838 net130
*839 net131
*840 net132
*841 net133
*842 net134
*843 net135
*844 net136
*845 net137
*846 net138
*847 net139
*848 net14
*849 net140
*850 net141
*851 net142
*852 net143
*853 net144
*854 net145
*855 net146
*856 net147
*857 net148
*858 net149
*859 net15
*860 net150
*861 net151
*862 net152
*863 net153
*864 net154
*865 net155
*866 net156
*867 net157
*868 net158
*869 net159
*870 net16
*871 net160
*872 net161
*873 net162
*874 net163
*875 net164
*876 net165
*877 net166
*878 net167
*879 net168
*880 net169
*881 net17
*882 net170
*883 net171
*884 net172
*885 net173
*886 net174
*887 net175
*888 net176
*889 net177
*890 net178
*891 net179
*892 net18
*893 net180
*894 net181
*895 net182
*896 net183
*897 net184
*898 net185
*899 net186
*900 net187
*901 net188
*902 net189
*903 net19
*904 net190
*905 net191
*906 net192
*907 net193
*908 net194
*909 net195
*910 net196
*911 net197
*912 net198
*913 net199
*914 net2
*915 net20
*916 net200
*917 net201
*918 net202
*919 net203
*920 net204
*921 net205
*922 net206
*923 net207
*924 net208
*925 net209
*926 net21
*927 net210
*928 net211
*929 net212
*930 net213
*931 net214
*932 net215
*933 net216
*934 net217
*935 net218
*936 net219
*937 net22
*938 net220
*939 net221
*940 net222
*941 net223
*942 net224
*943 net225
*944 net226
*945 net227
*946 net228
*947 net229
*948 net23
*949 net230
*950 net231
*951 net232
*952 net233
*953 net234
*954 net235
*955 net236
*956 net237
*957 net238
*958 net239
*959 net24
*960 net240
*961 net241
*962 net242
*963 net243
*964 net244
*965 net245
*966 net246
*967 net247
*968 net248
*969 net249
*970 net25
*971 net250
*972 net251
*973 net252
*974 net253
*975 net254
*976 net255
*977 net256
*978 net257
*979 net258
*980 net259
*981 net26
*982 net260
*983 net261
*984 net262
*985 net263
*986 net264
*987 net265
*988 net266
*989 net267
*990 net268
*991 net269
*992 net27
*993 net270
*994 net271
*995 net272
*996 net273
*997 net274
*998 net275
*999 net276
*1000 net277
*1001 net278
*1002 net279
*1003 net28
*1004 net280
*1005 net281
*1006 net282
*1007 net283
*1008 net284
*1009 net285
*1010 net286
*1011 net287
*1012 net288
*1013 net289
*1014 net29
*1015 net290
*1016 net291
*1017 net292
*1018 net293
*1019 net294
*1020 net295
*1021 net296
*1022 net297
*1023 net298
*1024 net299
*1025 net3
*1026 net30
*1027 net300
*1028 net301
*1029 net302
*1030 net303
*1031 net304
*1032 net305
*1033 net306
*1034 net307
*1035 net308
*1036 net309
*1037 net31
*1038 net310
*1039 net311
*1040 net312
*1041 net313
*1042 net314
*1043 net315
*1044 net316
*1045 net317
*1046 net318
*1047 net319
*1048 net32
*1049 net320
*1050 net321
*1051 net322
*1052 net323
*1053 net324
*1054 net325
*1055 net326
*1056 net327
*1057 net328
*1058 net329
*1059 net33
*1060 net330
*1061 net331
*1062 net332
*1063 net333
*1064 net334
*1065 net335
*1066 net336
*1067 net337
*1068 net338
*1069 net339
*1070 net34
*1071 net340
*1072 net341
*1073 net342
*1074 net343
*1075 net344
*1076 net345
*1077 net346
*1078 net347
*1079 net348
*1080 net349
*1081 net35
*1082 net350
*1083 net351
*1084 net352
*1085 net353
*1086 net354
*1087 net355
*1088 net356
*1089 net357
*1090 net358
*1091 net359
*1092 net36
*1093 net360
*1094 net361
*1095 net362
*1096 net363
*1097 net364
*1098 net365
*1099 net366
*1100 net367
*1101 net368
*1102 net369
*1103 net37
*1104 net370
*1105 net371
*1106 net372
*1107 net373
*1108 net374
*1109 net375
*1110 net376
*1111 net377
*1112 net378
*1113 net379
*1114 net38
*1115 net380
*1116 net381
*1117 net382
*1118 net383
*1119 net384
*1120 net385
*1121 net386
*1122 net387
*1123 net388
*1124 net389
*1125 net39
*1126 net390
*1127 net391
*1128 net392
*1129 net393
*1130 net394
*1131 net395
*1132 net396
*1133 net397
*1134 net398
*1135 net399
*1136 net4
*1137 net40
*1138 net400
*1139 net401
*1140 net402
*1141 net403
*1142 net404
*1143 net405
*1144 net406
*1145 net407
*1146 net408
*1147 net409
*1148 net41
*1149 net410
*1150 net411
*1151 net412
*1152 net413
*1153 net414
*1154 net415
*1155 net416
*1156 net417
*1157 net418
*1158 net419
*1159 net42
*1160 net420
*1161 net421
*1162 net422
*1163 net423
*1164 net424
*1165 net425
*1166 net426
*1167 net427
*1168 net428
*1169 net429
*1170 net43
*1171 net430
*1172 net431
*1173 net432
*1174 net433
*1175 net434
*1176 net435
*1177 net436
*1178 net437
*1179 net438
*1180 net439
*1181 net44
*1182 net440
*1183 net441
*1184 net442
*1185 net443
*1186 net444
*1187 net445
*1188 net446
*1189 net447
*1190 net448
*1191 net449
*1192 net45
*1193 net450
*1194 net451
*1195 net452
*1196 net453
*1197 net454
*1198 net455
*1199 net456
*1200 net457
*1201 net458
*1202 net459
*1203 net46
*1204 net460
*1205 net461
*1206 net462
*1207 net463
*1208 net464
*1209 net465
*1210 net466
*1211 net467
*1212 net468
*1213 net469
*1214 net47
*1215 net470
*1216 net471
*1217 net472
*1218 net473
*1219 net474
*1220 net475
*1221 net476
*1222 net477
*1223 net478
*1224 net479
*1225 net48
*1226 net480
*1227 net481
*1228 net482
*1229 net483
*1230 net484
*1231 net485
*1232 net486
*1233 net487
*1234 net488
*1235 net489
*1236 net49
*1237 net490
*1238 net491
*1239 net492
*1240 net493
*1241 net494
*1242 net495
*1243 net496
*1244 net497
*1245 net498
*1246 net499
*1247 net5
*1248 net50
*1249 net500
*1250 net501
*1251 net502
*1252 net503
*1253 net504
*1254 net505
*1255 net506
*1256 net507
*1257 net508
*1258 net509
*1259 net51
*1260 net510
*1261 net511
*1262 net512
*1263 net513
*1264 net514
*1265 net515
*1266 net516
*1267 net517
*1268 net518
*1269 net519
*1270 net52
*1271 net520
*1272 net521
*1273 net522
*1274 net523
*1275 net524
*1276 net525
*1277 net526
*1278 net527
*1279 net528
*1280 net529
*1281 net53
*1282 net530
*1283 net531
*1284 net532
*1285 net533
*1286 net534
*1287 net535
*1288 net536
*1289 net537
*1290 net538
*1291 net539
*1292 net54
*1293 net540
*1294 net541
*1295 net542
*1296 net543
*1297 net544
*1298 net545
*1299 net546
*1300 net547
*1301 net548
*1302 net549
*1303 net55
*1304 net550
*1305 net551
*1306 net552
*1307 net553
*1308 net554
*1309 net555
*1310 net556
*1311 net557
*1312 net558
*1313 net559
*1314 net56
*1315 net560
*1316 net561
*1317 net562
*1318 net563
*1319 net564
*1320 net565
*1321 net566
*1322 net567
*1323 net568
*1324 net569
*1325 net57
*1326 net570
*1327 net571
*1328 net572
*1329 net573
*1330 net574
*1331 net575
*1332 net576
*1333 net577
*1334 net578
*1335 net579
*1336 net58
*1337 net580
*1338 net581
*1339 net582
*1340 net583
*1341 net584
*1342 net585
*1343 net586
*1344 net587
*1345 net588
*1346 net589
*1347 net59
*1348 net590
*1349 net591
*1350 net592
*1351 net593
*1352 net594
*1353 net595
*1354 net596
*1355 net597
*1356 net598
*1357 net599
*1358 net6
*1359 net60
*1360 net600
*1361 net601
*1362 net602
*1363 net603
*1364 net604
*1365 net605
*1366 net606
*1367 net607
*1368 net608
*1369 net609
*1370 net61
*1371 net610
*1372 net611
*1373 net612
*1374 net613
*1375 net614
*1376 net615
*1377 net616
*1378 net617
*1379 net618
*1380 net619
*1381 net62
*1382 net620
*1383 net621
*1384 net622
*1385 net623
*1386 net624
*1387 net625
*1388 net626
*1389 net627
*1390 net628
*1391 net629
*1392 net63
*1393 net630
*1394 net631
*1395 net632
*1396 net633
*1397 net634
*1398 net635
*1399 net636
*1400 net637
*1401 net638
*1402 net639
*1403 net64
*1404 net640
*1405 net641
*1406 net642
*1407 net643
*1408 net644
*1409 net645
*1410 net646
*1411 net647
*1412 net648
*1413 net649
*1414 net65
*1415 net650
*1416 net651
*1417 net652
*1418 net653
*1419 net654
*1420 net655
*1421 net656
*1422 net657
*1423 net658
*1424 net659
*1425 net66
*1426 net660
*1427 net661
*1428 net662
*1429 net663
*1430 net664
*1431 net665
*1432 net666
*1433 net667
*1434 net668
*1435 net669
*1436 net67
*1437 net670
*1438 net671
*1439 net672
*1440 net673
*1441 net674
*1442 net675
*1443 net676
*1444 net677
*1445 net678
*1446 net679
*1447 net68
*1448 net680
*1449 net681
*1450 net682
*1451 net683
*1452 net684
*1453 net685
*1454 net686
*1455 net687
*1456 net688
*1457 net689
*1458 net69
*1459 net690
*1460 net691
*1461 net692
*1462 net693
*1463 net694
*1464 net695
*1465 net696
*1466 net697
*1467 net698
*1468 net699
*1469 net7
*1470 net70
*1471 net700
*1472 net701
*1473 net702
*1474 net703
*1475 net704
*1476 net705
*1477 net706
*1478 net707
*1479 net708
*1480 net709
*1481 net71
*1482 net710
*1483 net711
*1484 net712
*1485 net713
*1486 net714
*1487 net715
*1488 net716
*1489 net717
*1490 net718
*1491 net719
*1492 net72
*1493 net720
*1494 net721
*1495 net722
*1496 net723
*1497 net724
*1498 net725
*1499 net726
*1500 net727
*1501 net728
*1502 net729
*1503 net73
*1504 net730
*1505 net731
*1506 net732
*1507 net733
*1508 net734
*1509 net735
*1510 net736
*1511 net737
*1512 net738
*1513 net739
*1514 net74
*1515 net740
*1516 net741
*1517 net742
*1518 net743
*1519 net744
*1520 net745
*1521 net746
*1522 net747
*1523 net748
*1524 net749
*1525 net75
*1526 net750
*1527 net751
*1528 net752
*1529 net753
*1530 net754
*1531 net755
*1532 net756
*1533 net757
*1534 net758
*1535 net759
*1536 net76
*1537 net760
*1538 net761
*1539 net762
*1540 net763
*1541 net764
*1542 net765
*1543 net766
*1544 net767
*1545 net768
*1546 net769
*1547 net77
*1548 net770
*1549 net771
*1550 net772
*1551 net773
*1552 net774
*1553 net775
*1554 net776
*1555 net777
*1556 net778
*1557 net779
*1558 net78
*1559 net780
*1560 net781
*1561 net782
*1562 net783
*1563 net784
*1564 net785
*1565 net786
*1566 net787
*1567 net788
*1568 net789
*1569 net79
*1570 net790
*1571 net791
*1572 net792
*1573 net793
*1574 net794
*1575 net795
*1576 net796
*1577 net797
*1578 net798
*1579 net799
*1580 net8
*1581 net80
*1582 net800
*1583 net801
*1584 net802
*1585 net803
*1586 net804
*1587 net805
*1588 net806
*1589 net807
*1590 net808
*1591 net809
*1592 net81
*1593 net810
*1594 net811
*1595 net812
*1596 net813
*1597 net814
*1598 net815
*1599 net816
*1600 net817
*1601 net818
*1602 net819
*1603 net82
*1604 net820
*1605 net821
*1606 net822
*1607 net823
*1608 net824
*1609 net825
*1610 net826
*1611 net827
*1612 net828
*1613 net829
*1614 net83
*1615 net830
*1616 net831
*1617 net832
*1618 net833
*1619 net834
*1620 net835
*1621 net836
*1622 net837
*1623 net838
*1624 net839
*1625 net84
*1626 net840
*1627 net841
*1628 net842
*1629 net843
*1630 net844
*1631 net845
*1632 net846
*1633 net847
*1634 net848
*1635 net849
*1636 net85
*1637 net850
*1638 net851
*1639 net852
*1640 net853
*1641 net854
*1642 net855
*1643 net856
*1644 net857
*1645 net858
*1646 net859
*1647 net86
*1648 net860
*1649 net861
*1650 net862
*1651 net863
*1652 net864
*1653 net865
*1654 net866
*1655 net867
*1656 net868
*1657 net869
*1658 net87
*1659 net870
*1660 net871
*1661 net872
*1662 net873
*1663 net874
*1664 net875
*1665 net876
*1666 net877
*1667 net878
*1668 net879
*1669 net88
*1670 net880
*1671 net881
*1672 net882
*1673 net883
*1674 net884
*1675 net885
*1676 net886
*1677 net887
*1678 net888
*1679 net889
*1680 net89
*1681 net890
*1682 net891
*1683 net892
*1684 net893
*1685 net894
*1686 net895
*1687 net896
*1688 net897
*1689 net898
*1690 net899
*1691 net9
*1692 net90
*1693 net900
*1694 net901
*1695 net902
*1696 net903
*1697 net904
*1698 net905
*1699 net906
*1700 net907
*1701 net908
*1702 net909
*1703 net91
*1704 net910
*1705 net911
*1706 net912
*1707 net913
*1708 net914
*1709 net915
*1710 net916
*1711 net917
*1712 net918
*1713 net919
*1714 net92
*1715 net920
*1716 net921
*1717 net922
*1718 net923
*1719 net924
*1720 net925
*1721 net926
*1722 net927
*1723 net928
*1724 net929
*1725 net93
*1726 net930
*1727 net931
*1728 net932
*1729 net933
*1730 net934
*1731 net935
*1732 net936
*1733 net937
*1734 net938
*1735 net939
*1736 net94
*1737 net940
*1738 net941
*1739 net942
*1740 net943
*1741 net944
*1742 net945
*1743 net946
*1744 net947
*1745 net948
*1746 net949
*1747 net95
*1748 net950
*1749 net951
*1750 net952
*1751 net953
*1752 net954
*1753 net955
*1754 net956
*1755 net957
*1756 net958
*1757 net959
*1758 net96
*1759 net960
*1760 net961
*1761 net962
*1762 net963
*1763 net964
*1764 net965
*1765 net966
*1766 net967
*1767 net968
*1768 net969
*1769 net97
*1770 net970
*1771 net971
*1772 net972
*1773 net973
*1774 net974
*1775 net975
*1776 net976
*1777 net977
*1778 net978
*1779 net979
*1780 net98
*1781 net980
*1782 net981
*1783 net982
*1784 net983
*1785 net984
*1786 net985
*1787 net986
*1788 net987
*1789 net988
*1790 net989
*1791 net99
*1792 net990
*1793 net991
*1794 net992
*1795 net993
*1796 net994
*1797 net995
*1798 net996
*1799 net997
*1800 net998
*1801 net999
*1802 ANTENNA_1
*1803 ANTENNA_2
*1804 ANTENNA_c100_A2
*1805 ANTENNA_c101_A0
*1806 ANTENNA_c101_A1
*1807 ANTENNA_c101_S0
*1808 ANTENNA_c101_X
*1809 ANTENNA_c102_A1
*1810 ANTENNA_c102_A2
*1811 ANTENNA_c102_A3
*1812 ANTENNA_c102_S1
*1813 ANTENNA_c103_A0
*1814 ANTENNA_c103_A1
*1815 ANTENNA_c103_X
*1816 ANTENNA_c104_A0
*1817 ANTENNA_c104_A1
*1818 ANTENNA_c104_A2
*1819 ANTENNA_c116_A1
*1820 ANTENNA_c116_A3
*1821 ANTENNA_c116_S0
*1822 ANTENNA_c117_A0
*1823 ANTENNA_c117_A1
*1824 ANTENNA_c118_A1
*1825 ANTENNA_c118_S0
*1826 ANTENNA_c118_S1
*1827 ANTENNA_c119_A1
*1828 ANTENNA_c120_A2
*1829 ANTENNA_c121_A0
*1830 ANTENNA_c123_A0
*1831 ANTENNA_c123_A2
*1832 ANTENNA_c125_A0
*1833 ANTENNA_c126_A1
*1834 ANTENNA_c126_A2
*1835 ANTENNA_c126_B1