*SPEF "ieee 1481-1999"
*DESIGN "netlist_0"
*DATE "15:52:29 Thursday August 08, 2024"
*VENDOR "The OpenROAD Project"
*PROGRAM "OpenROAD"
*VERSION "d423155d69de7f683a23f6916ead418a615ad4ad"
*DESIGN_FLOW "NAME_SCOPE LOCAL" "PIN_CAP NONE"
*DIVIDER /
*DELIMITER :
*BUS_DELIMITER []
*T_UNIT 1 NS
*C_UNIT 1 PF
*R_UNIT 1 OHM
*L_UNIT 1 HENRY

*NAME_MAP
*3 clk
*4 in0
*5 in1
*6 in10
*7 in11
*8 in12
*9 in13
*10 in14
*11 in15
*12 in16
*13 in17
*14 in18
*15 in19
*16 in2
*17 in20
*18 in21
*19 in22
*20 in23
*21 in24
*22 in25
*23 in26
*24 in27
*25 in28
*26 in29
*27 in3
*28 in30
*29 in31
*30 in32
*31 in33
*32 in34
*33 in35
*34 in36
*35 in37
*36 in38
*37 in39
*38 in4
*39 in40
*40 in41
*41 in42
*42 in43
*43 in44
*44 in45
*45 in46
*46 in47
*47 in48
*48 in49
*49 in5
*50 in50
*51 in51
*52 in52
*53 in53
*54 in54
*55 in55
*56 in56
*57 in57
*58 in58
*59 in59
*60 in6
*61 in60
*62 in61
*63 in7
*64 in8
*65 in9
*66 out0
*67 out1
*68 out10
*69 out11
*70 out12
*71 out13
*72 out14
*73 out15
*74 out16
*75 out17
*76 out18
*77 out19
*78 out2
*79 out20
*80 out21
*81 out22
*82 out23
*83 out24
*84 out25
*85 out26
*86 out27
*87 out28
*88 out29
*89 out3
*90 out30
*91 out31
*92 out32
*93 out33
*94 out34
*95 out35
*96 out36
*97 out37
*98 out38
*99 out39
*100 out4
*101 out40
*102 out41
*103 out42
*104 out43
*105 out44
*106 out45
*107 out46
*108 out47
*109 out48
*110 out49
*111 out5
*112 out50
*113 out51
*114 out52
*115 out53
*116 out54
*117 out55
*118 out56
*119 out57
*120 out58
*121 out59
*122 out6
*123 out60
*124 out61
*125 out7
*126 out8
*127 out9
*128 rst
*129 clknet_0_clk
*130 clknet_0_net1001
*131 clknet_0_net1006
*132 clknet_0_net118
*133 clknet_0_net119
*134 clknet_0_net125
*135 clknet_0_net127
*136 clknet_0_net129
*137 clknet_0_net130
*138 clknet_0_net131
*139 clknet_0_net140
*140 clknet_0_net142
*141 clknet_0_net143
*142 clknet_0_net147
*143 clknet_0_net153
*144 clknet_0_net158
*145 clknet_0_net159
*146 clknet_0_net160
*147 clknet_0_net164
*148 clknet_0_net165
*149 clknet_0_net223
*150 clknet_0_net225
*151 clknet_0_net228
*152 clknet_0_net233
*153 clknet_0_net243
*154 clknet_0_net254
*155 clknet_0_net271
*156 clknet_0_net286
*157 clknet_0_net350
*158 clknet_0_net353
*159 clknet_0_net354
*160 clknet_0_net355
*161 clknet_0_net357
*162 clknet_0_net358
*163 clknet_0_net379
*164 clknet_0_net380
*165 clknet_0_net381
*166 clknet_0_net389
*167 clknet_0_net404
*168 clknet_0_net405
*169 clknet_0_net407
*170 clknet_0_net409
*171 clknet_0_net451
*172 clknet_0_net452
*173 clknet_0_net455
*174 clknet_0_net47
*175 clknet_0_net476
*176 clknet_0_net477
*177 clknet_0_net491
*178 clknet_0_net500
*179 clknet_0_net501
*180 clknet_0_net51
*181 clknet_0_net579
*182 clknet_0_net585
*183 clknet_0_net588
*184 clknet_0_net600
*185 clknet_0_net605
*186 clknet_0_net616
*187 clknet_0_net662
*188 clknet_0_net748
*189 clknet_0_net749
*190 clknet_0_net750
*191 clknet_0_net792
*192 clknet_0_net793
*193 clknet_0_net828
*194 clknet_0_net845
*195 clknet_0_net846
*196 clknet_0_net847
*197 clknet_0_net866
*198 clknet_0_net867
*199 clknet_0_net884
*200 clknet_0_net885
*201 clknet_0_net886
*202 clknet_0_net961
*203 clknet_0_net965
*204 clknet_0_net966
*205 clknet_0_net971
*206 clknet_0_net973
*207 clknet_0_net984
*208 clknet_0_net991
*209 clknet_0_net995
*210 clknet_1_0__leaf_net1001
*211 clknet_1_0__leaf_net1006
*212 clknet_1_0__leaf_net118
*213 clknet_1_0__leaf_net119
*214 clknet_1_0__leaf_net125
*215 clknet_1_0__leaf_net127
*216 clknet_1_0__leaf_net129
*217 clknet_1_0__leaf_net130
*218 clknet_1_0__leaf_net131
*219 clknet_1_0__leaf_net140
*220 clknet_1_0__leaf_net142
*221 clknet_1_0__leaf_net143
*222 clknet_1_0__leaf_net147
*223 clknet_1_0__leaf_net153
*224 clknet_1_0__leaf_net158
*225 clknet_1_0__leaf_net159
*226 clknet_1_0__leaf_net160
*227 clknet_1_0__leaf_net164
*228 clknet_1_0__leaf_net165
*229 clknet_1_0__leaf_net223
*230 clknet_1_0__leaf_net225
*231 clknet_1_0__leaf_net228
*232 clknet_1_0__leaf_net233
*233 clknet_1_0__leaf_net243
*234 clknet_1_0__leaf_net254
*235 clknet_1_0__leaf_net271
*236 clknet_1_0__leaf_net286
*237 clknet_1_0__leaf_net350
*238 clknet_1_0__leaf_net353
*239 clknet_1_0__leaf_net354
*240 clknet_1_0__leaf_net355
*241 clknet_1_0__leaf_net357
*242 clknet_1_0__leaf_net358
*243 clknet_1_0__leaf_net379
*244 clknet_1_0__leaf_net380
*245 clknet_1_0__leaf_net381
*246 clknet_1_0__leaf_net389
*247 clknet_1_0__leaf_net404
*248 clknet_1_0__leaf_net405
*249 clknet_1_0__leaf_net407
*250 clknet_1_0__leaf_net409
*251 clknet_1_0__leaf_net451
*252 clknet_1_0__leaf_net452
*253 clknet_1_0__leaf_net455
*254 clknet_1_0__leaf_net47
*255 clknet_1_0__leaf_net476
*256 clknet_1_0__leaf_net477
*257 clknet_1_0__leaf_net491
*258 clknet_1_0__leaf_net500
*259 clknet_1_0__leaf_net501
*260 clknet_1_0__leaf_net51
*261 clknet_1_0__leaf_net579
*262 clknet_1_0__leaf_net585
*263 clknet_1_0__leaf_net588
*264 clknet_1_0__leaf_net600
*265 clknet_1_0__leaf_net605
*266 clknet_1_0__leaf_net616
*267 clknet_1_0__leaf_net662
*268 clknet_1_0__leaf_net748
*269 clknet_1_0__leaf_net749
*270 clknet_1_0__leaf_net750
*271 clknet_1_0__leaf_net792
*272 clknet_1_0__leaf_net793
*273 clknet_1_0__leaf_net828
*274 clknet_1_0__leaf_net845
*275 clknet_1_0__leaf_net846
*276 clknet_1_0__leaf_net847
*277 clknet_1_0__leaf_net866
*278 clknet_1_0__leaf_net867
*279 clknet_1_0__leaf_net884
*280 clknet_1_0__leaf_net885
*281 clknet_1_0__leaf_net886
*282 clknet_1_0__leaf_net961
*283 clknet_1_0__leaf_net965
*284 clknet_1_0__leaf_net966
*285 clknet_1_0__leaf_net971
*286 clknet_1_0__leaf_net973
*287 clknet_1_0__leaf_net984
*288 clknet_1_0__leaf_net991
*289 clknet_1_0__leaf_net995
*290 clknet_1_1__leaf_net1001
*291 clknet_1_1__leaf_net1006
*292 clknet_1_1__leaf_net118
*293 clknet_1_1__leaf_net119
*294 clknet_1_1__leaf_net125
*295 clknet_1_1__leaf_net127
*296 clknet_1_1__leaf_net129
*297 clknet_1_1__leaf_net130
*298 clknet_1_1__leaf_net131
*299 clknet_1_1__leaf_net140
*300 clknet_1_1__leaf_net142
*301 clknet_1_1__leaf_net143
*302 clknet_1_1__leaf_net147
*303 clknet_1_1__leaf_net153
*304 clknet_1_1__leaf_net158
*305 clknet_1_1__leaf_net159
*306 clknet_1_1__leaf_net160
*307 clknet_1_1__leaf_net164
*308 clknet_1_1__leaf_net165
*309 clknet_1_1__leaf_net223
*310 clknet_1_1__leaf_net225
*311 clknet_1_1__leaf_net228
*312 clknet_1_1__leaf_net233
*313 clknet_1_1__leaf_net243
*314 clknet_1_1__leaf_net254
*315 clknet_1_1__leaf_net271
*316 clknet_1_1__leaf_net286
*317 clknet_1_1__leaf_net350
*318 clknet_1_1__leaf_net353
*319 clknet_1_1__leaf_net354
*320 clknet_1_1__leaf_net355
*321 clknet_1_1__leaf_net357
*322 clknet_1_1__leaf_net358
*323 clknet_1_1__leaf_net379
*324 clknet_1_1__leaf_net380
*325 clknet_1_1__leaf_net381
*326 clknet_1_1__leaf_net389
*327 clknet_1_1__leaf_net404
*328 clknet_1_1__leaf_net405
*329 clknet_1_1__leaf_net407
*330 clknet_1_1__leaf_net409
*331 clknet_1_1__leaf_net451
*332 clknet_1_1__leaf_net452
*333 clknet_1_1__leaf_net455
*334 clknet_1_1__leaf_net47
*335 clknet_1_1__leaf_net476
*336 clknet_1_1__leaf_net477
*337 clknet_1_1__leaf_net491
*338 clknet_1_1__leaf_net500
*339 clknet_1_1__leaf_net501
*340 clknet_1_1__leaf_net51
*341 clknet_1_1__leaf_net579
*342 clknet_1_1__leaf_net585
*343 clknet_1_1__leaf_net588
*344 clknet_1_1__leaf_net600
*345 clknet_1_1__leaf_net605
*346 clknet_1_1__leaf_net616
*347 clknet_1_1__leaf_net662
*348 clknet_1_1__leaf_net748
*349 clknet_1_1__leaf_net749
*350 clknet_1_1__leaf_net750
*351 clknet_1_1__leaf_net792
*352 clknet_1_1__leaf_net793
*353 clknet_1_1__leaf_net828
*354 clknet_1_1__leaf_net845
*355 clknet_1_1__leaf_net846
*356 clknet_1_1__leaf_net847
*357 clknet_1_1__leaf_net866
*358 clknet_1_1__leaf_net867
*359 clknet_1_1__leaf_net884
*360 clknet_1_1__leaf_net885
*361 clknet_1_1__leaf_net886
*362 clknet_1_1__leaf_net961
*363 clknet_1_1__leaf_net965
*364 clknet_1_1__leaf_net966
*365 clknet_1_1__leaf_net971
*366 clknet_1_1__leaf_net973
*367 clknet_1_1__leaf_net984
*368 clknet_1_1__leaf_net991
*369 clknet_1_1__leaf_net995
*370 clknet_4_0_0_clk
*371 clknet_4_10_0_clk
*372 clknet_4_11_0_clk
*373 clknet_4_12_0_clk
*374 clknet_4_13_0_clk
*375 clknet_4_14_0_clk
*376 clknet_4_15_0_clk
*377 clknet_4_1_0_clk
*378 clknet_4_2_0_clk
*379 clknet_4_3_0_clk
*380 clknet_4_4_0_clk
*381 clknet_4_5_0_clk
*382 clknet_4_6_0_clk
*383 clknet_4_7_0_clk
*384 clknet_4_8_0_clk
*385 clknet_4_9_0_clk
*386 net0
*387 net1
*388 net10
*389 net100
*390 net1000
*391 net1001
*392 net1002
*393 net1003
*394 net1004
*395 net1005
*396 net1006
*397 net1007
*398 net1008
*399 net1009
*400 net101
*401 net1010
*402 net1011
*403 net1012
*404 net1013
*405 net1014
*406 net1015
*407 net1016
*408 net1017
*409 net1018
*410 net1019
*411 net102
*412 net1020
*413 net1021
*414 net1022
*415 net1023
*416 net1024
*417 net1025
*418 net1026
*419 net1027
*420 net1028
*421 net1029
*422 net103
*423 net1030
*424 net1031
*425 net1032
*426 net1033
*427 net1034
*428 net1035
*429 net1036
*430 net1037
*431 net1038
*432 net1039
*433 net104
*434 net1040
*435 net1041
*436 net1042
*437 net1043
*438 net1044
*439 net1045
*440 net1046
*441 net1047
*442 net1048
*443 net1049
*444 net105
*445 net1050
*446 net1051
*447 net1052
*448 net1053
*449 net1054
*450 net1055
*451 net1056
*452 net1057
*453 net1058
*454 net1059
*455 net106
*456 net1060
*457 net1061
*458 net1062
*459 net1063
*460 net1064
*461 net1065
*462 net1066
*463 net1067
*464 net1068
*465 net1069
*466 net107
*467 net1070
*468 net1071
*469 net1072
*470 net1073
*471 net1074
*472 net1075
*473 net1076
*474 net1077
*475 net1078
*476 net1079
*477 net108
*478 net1080
*479 net1081
*480 net1082
*481 net1083
*482 net1084
*483 net1085
*484 net1086
*485 net1087
*486 net1088
*487 net1089
*488 net109
*489 net1090
*490 net1091
*491 net1092
*492 net1093
*493 net1094
*494 net1095
*495 net11
*496 net110
*497 net111
*498 net112
*499 net113
*500 net114
*501 net115
*502 net116
*503 net117
*504 net118
*505 net119
*506 net12
*507 net120
*508 net121
*509 net122
*510 net123
*511 net124
*512 net125
*513 net126
*514 net127
*515 net128
*516 net129
*517 net13
*518 net130
*519 net131
*520 net132
*521 net133
*522 net134
*523 net135
*524 net136
*525 net137
*526 net138
*527 net139
*528 net14
*529 net140
*530 net141
*531 net142
*532 net143
*533 net144
*534 net145
*535 net146
*536 net147
*537 net148
*538 net149
*539 net15
*540 net150
*541 net151
*542 net152
*543 net153
*544 net154
*545 net155
*546 net156
*547 net157
*548 net158
*549 net159
*550 net16
*551 net160
*552 net161
*553 net162
*554 net163
*555 net164
*556 net165
*557 net166
*558 net167
*559 net168
*560 net169
*561 net17
*562 net170
*563 net171
*564 net172
*565 net173
*566 net174
*567 net175
*568 net176
*569 net177
*570 net178
*571 net179
*572 net18
*573 net180
*574 net181
*575 net182
*576 net183
*577 net184
*578 net185
*579 net186
*580 net187
*581 net188
*582 net189
*583 net19
*584 net190
*585 net191
*586 net192
*587 net193
*588 net194
*589 net195
*590 net196
*591 net197
*592 net198
*593 net199
*594 net2
*595 net20
*596 net200
*597 net201
*598 net202
*599 net203
*600 net204
*601 net205
*602 net206
*603 net207
*604 net208
*605 net209
*606 net21
*607 net210
*608 net211
*609 net212
*610 net213
*611 net214
*612 net215
*613 net216
*614 net217
*615 net218
*616 net219
*617 net22
*618 net220
*619 net221
*620 net222
*621 net223
*622 net224
*623 net225
*624 net226
*625 net227
*626 net228
*627 net229
*628 net23
*629 net230
*630 net231
*631 net232
*632 net233
*633 net234
*634 net235
*635 net236
*636 net237
*637 net238
*638 net239
*639 net24
*640 net240
*641 net241
*642 net242
*643 net243
*644 net244
*645 net245
*646 net246
*647 net247
*648 net248
*649 net249
*650 net25
*651 net250
*652 net251
*653 net252
*654 net253
*655 net254
*656 net255
*657 net256
*658 net257
*659 net258
*660 net259
*661 net26
*662 net260
*663 net261
*664 net262
*665 net263
*666 net264
*667 net265
*668 net266
*669 net267
*670 net268
*671 net269
*672 net27
*673 net270
*674 net271
*675 net272
*676 net273
*677 net274
*678 net275
*679 net276
*680 net277
*681 net278
*682 net279
*683 net28
*684 net280
*685 net281
*686 net282
*687 net283
*688 net284
*689 net285
*690 net286
*691 net287
*692 net288
*693 net289
*694 net29
*695 net290
*696 net291
*697 net292
*698 net293
*699 net294
*700 net295
*701 net296
*702 net297
*703 net298
*704 net299
*705 net3
*706 net30
*707 net300
*708 net301
*709 net302
*710 net303
*711 net304
*712 net305
*713 net306
*714 net307
*715 net308
*716 net309
*717 net31
*718 net310
*719 net311
*720 net312
*721 net313
*722 net314
*723 net315
*724 net316
*725 net317
*726 net318
*727 net319
*728 net32
*729 net320
*730 net321
*731 net322
*732 net323
*733 net324
*734 net325
*735 net326
*736 net327
*737 net328
*738 net329
*739 net33
*740 net330
*741 net331
*742 net332
*743 net333
*744 net334
*745 net335
*746 net336
*747 net337
*748 net338
*749 net339
*750 net34
*751 net340
*752 net341
*753 net342
*754 net343
*755 net344
*756 net345
*757 net346
*758 net347
*759 net348
*760 net349
*761 net35
*762 net350
*763 net351
*764 net352
*765 net353
*766 net354
*767 net355
*768 net356
*769 net357
*770 net358
*771 net359
*772 net36
*773 net360
*774 net361
*775 net362
*776 net363
*777 net364
*778 net365
*779 net366
*780 net367
*781 net368
*782 net369
*783 net37
*784 net370
*785 net371
*786 net372
*787 net373
*788 net374
*789 net375
*790 net376
*791 net377
*792 net378
*793 net379
*794 net38
*795 net380
*796 net381
*797 net382
*798 net383
*799 net384
*800 net385
*801 net386
*802 net387
*803 net388
*804 net389
*805 net39
*806 net390
*807 net391
*808 net392
*809 net393
*810 net394
*811 net395
*812 net396
*813 net397
*814 net398
*815 net399
*816 net4
*817 net40
*818 net400
*819 net401
*820 net402
*821 net403
*822 net404
*823 net405
*824 net406
*825 net407
*826 net408
*827 net409
*828 net41
*829 net410
*830 net411
*831 net412
*832 net413
*833 net414
*834 net415
*835 net416
*836 net417
*837 net418
*838 net419
*839 net42
*840 net420
*841 net421
*842 net422
*843 net423
*844 net424
*845 net425
*846 net426
*847 net427
*848 net428
*849 net429
*850 net43
*851 net430
*852 net431
*853 net432
*854 net433
*855 net434
*856 net435
*857 net436
*858 net437
*859 net438
*860 net439
*861 net44
*862 net440
*863 net441
*864 net442
*865 net443
*866 net444
*867 net445
*868 net446
*869 net447
*870 net448
*871 net449
*872 net45
*873 net450
*874 net451
*875 net452
*876 net453
*877 net454
*878 net455
*879 net456
*880 net457
*881 net458
*882 net459
*883 net46
*884 net460
*885 net461
*886 net462
*887 net463
*888 net464
*889 net465
*890 net466
*891 net467
*892 net468
*893 net469
*894 net47
*895 net470
*896 net471
*897 net472
*898 net473
*899 net474
*900 net475
*901 net476
*902 net477
*903 net478
*904 net479
*905 net48
*906 net480
*907 net481
*908 net482
*909 net483
*910 net484
*911 net485
*912 net486
*913 net487
*914 net488
*915 net489
*916 net49
*917 net490
*918 net491
*919 net492
*920 net493
*921 net494
*922 net495
*923 net496
*924 net497
*925 net498
*926 net499
*927 net5
*928 net50
*929 net500
*930 net501
*931 net502
*932 net503
*933 net504
*934 net505
*935 net506
*936 net507
*937 net508
*938 net509
*939 net51
*940 net510
*941 net511
*942 net512
*943 net513
*944 net514
*945 net515
*946 net516
*947 net517
*948 net518
*949 net519
*950 net52
*951 net520
*952 net521
*953 net522
*954 net523
*955 net524
*956 net525
*957 net526
*958 net527
*959 net528
*960 net529
*961 net53
*962 net530
*963 net531
*964 net532
*965 net533
*966 net534
*967 net535
*968 net536
*969 net537
*970 net538
*971 net539
*972 net54
*973 net540
*974 net541
*975 net542
*976 net543
*977 net544
*978 net545
*979 net546
*980 net547
*981 net548
*982 net549
*983 net55
*984 net550
*985 net551
*986 net552
*987 net553
*988 net554
*989 net555
*990 net556
*991 net557
*992 net558
*993 net559
*994 net56
*995 net560
*996 net561
*997 net562
*998 net563
*999 net564
*1000 net565
*1001 net566
*1002 net567
*1003 net568
*1004 net569
*1005 net57
*1006 net570
*1007 net571
*1008 net572
*1009 net573
*1010 net574
*1011 net575
*1012 net576
*1013 net577
*1014 net578
*1015 net579
*1016 net58
*1017 net580
*1018 net581
*1019 net582
*1020 net583
*1021 net584
*1022 net585
*1023 net586
*1024 net587
*1025 net588
*1026 net589
*1027 net59
*1028 net590
*1029 net591
*1030 net592
*1031 net593
*1032 net594
*1033 net595
*1034 net596
*1035 net597
*1036 net598
*1037 net599
*1038 net6
*1039 net60
*1040 net600
*1041 net601
*1042 net602
*1043 net603
*1044 net604
*1045 net605
*1046 net606
*1047 net607
*1048 net608
*1049 net609
*1050 net61
*1051 net610
*1052 net611
*1053 net612
*1054 net613
*1055 net614
*1056 net615
*1057 net616
*1058 net617
*1059 net618
*1060 net619
*1061 net62
*1062 net620
*1063 net621
*1064 net622
*1065 net623
*1066 net624
*1067 net625
*1068 net626
*1069 net627
*1070 net628
*1071 net629
*1072 net63
*1073 net630
*1074 net631
*1075 net632
*1076 net633
*1077 net634
*1078 net635
*1079 net636
*1080 net637
*1081 net638
*1082 net639
*1083 net64
*1084 net640
*1085 net641
*1086 net642
*1087 net643
*1088 net644
*1089 net645
*1090 net646
*1091 net647
*1092 net648
*1093 net649
*1094 net65
*1095 net650
*1096 net651
*1097 net652
*1098 net653
*1099 net654
*1100 net655
*1101 net656
*1102 net657
*1103 net658
*1104 net659
*1105 net66
*1106 net660
*1107 net661
*1108 net662
*1109 net663
*1110 net664
*1111 net665
*1112 net666
*1113 net667
*1114 net668
*1115 net669
*1116 net67
*1117 net670
*1118 net671
*1119 net672
*1120 net673
*1121 net674
*1122 net675
*1123 net676
*1124 net677
*1125 net678
*1126 net679
*1127 net68
*1128 net680
*1129 net681
*1130 net682
*1131 net683
*1132 net684
*1133 net685
*1134 net686
*1135 net687
*1136 net688
*1137 net689
*1138 net69
*1139 net690
*1140 net691
*1141 net692
*1142 net693
*1143 net694
*1144 net695
*1145 net696
*1146 net697
*1147 net698
*1148 net699
*1149 net7
*1150 net70
*1151 net700
*1152 net701
*1153 net702
*1154 net703
*1155 net704
*1156 net705
*1157 net706
*1158 net707
*1159 net708
*1160 net709
*1161 net71
*1162 net710
*1163 net711
*1164 net712
*1165 net713
*1166 net714
*1167 net715
*1168 net716
*1169 net717
*1170 net718
*1171 net719
*1172 net72
*1173 net720
*1174 net721
*1175 net722
*1176 net723
*1177 net724
*1178 net725
*1179 net726
*1180 net727
*1181 net728
*1182 net729
*1183 net73
*1184 net730
*1185 net731
*1186 net732
*1187 net733
*1188 net734
*1189 net735
*1190 net736
*1191 net737
*1192 net738
*1193 net739
*1194 net74
*1195 net740
*1196 net741
*1197 net742
*1198 net743
*1199 net744
*1200 net745
*1201 net746
*1202 net747
*1203 net748
*1204 net749
*1205 net75
*1206 net750
*1207 net751
*1208 net752
*1209 net753
*1210 net754
*1211 net755
*1212 net756
*1213 net757
*1214 net758
*1215 net759
*1216 net76
*1217 net760
*1218 net761
*1219 net762
*1220 net763
*1221 net764
*1222 net765
*1223 net766
*1224 net767
*1225 net768
*1226 net769
*1227 net77
*1228 net770
*1229 net771
*1230 net772
*1231 net773
*1232 net774
*1233 net775
*1234 net776
*1235 net777
*1236 net778
*1237 net779
*1238 net78
*1239 net780
*1240 net781
*1241 net782
*1242 net783
*1243 net784
*1244 net785
*1245 net786
*1246 net787
*1247 net788
*1248 net789
*1249 net79
*1250 net790
*1251 net791
*1252 net792
*1253 net793
*1254 net794
*1255 net795
*1256 net796
*1257 net797
*1258 net798
*1259 net799
*1260 net8
*1261 net80
*1262 net800
*1263 net801
*1264 net802
*1265 net803
*1266 net804
*1267 net805
*1268 net806
*1269 net807
*1270 net808
*1271 net809
*1272 net81
*1273 net810
*1274 net811
*1275 net812
*1276 net813
*1277 net814
*1278 net815
*1279 net816
*1280 net817
*1281 net818
*1282 net819
*1283 net82
*1284 net820
*1285 net821
*1286 net822
*1287 net823
*1288 net824
*1289 net825
*1290 net826
*1291 net827
*1292 net828
*1293 net829
*1294 net83
*1295 net830
*1296 net831
*1297 net832
*1298 net833
*1299 net834
*1300 net835
*1301 net836
*1302 net837
*1303 net838
*1304 net839
*1305 net84
*1306 net840
*1307 net841
*1308 net842
*1309 net843
*1310 net844
*1311 net845
*1312 net846
*1313 net847
*1314 net848
*1315 net849
*1316 net85
*1317 net850
*1318 net851
*1319 net852
*1320 net853
*1321 net854
*1322 net855
*1323 net856
*1324 net857
*1325 net858
*1326 net859
*1327 net86
*1328 net860
*1329 net861
*1330 net862
*1331 net863
*1332 net864
*1333 net865
*1334 net866
*1335 net867
*1336 net868
*1337 net869
*1338 net87
*1339 net870
*1340 net871
*1341 net872
*1342 net873
*1343 net874
*1344 net875
*1345 net876
*1346 net877
*1347 net878
*1348 net879
*1349 net88
*1350 net880
*1351 net881
*1352 net882
*1353 net883
*1354 net884
*1355 net885
*1356 net886
*1357 net887
*1358 net888
*1359 net889
*1360 net89
*1361 net890
*1362 net891
*1363 net892
*1364 net893
*1365 net894
*1366 net895
*1367 net896
*1368 net897
*1369 net898
*1370 net899
*1371 net9
*1372 net90
*1373 net900
*1374 net901
*1375 net902
*1376 net903
*1377 net904
*1378 net905
*1379 net906
*1380 net907
*1381 net908
*1382 net909
*1383 net91
*1384 net910
*1385 net911
*1386 net912
*1387 net913
*1388 net914
*1389 net915
*1390 net916
*1391 net917
*1392 net918
*1393 net919
*1394 net92
*1395 net920
*1396 net921
*1397 net922
*1398 net923
*1399 net924
*1400 net925
*1401 net926
*1402 net927
*1403 net928
*1404 net929
*1405 net93
*1406 net930
*1407 net931
*1408 net932
*1409 net933
*1410 net934
*1411 net935
*1412 net936
*1413 net937
*1414 net938
*1415 net939
*1416 net94
*1417 net940
*1418 net941
*1419 net942
*1420 net943
*1421 net944
*1422 net945
*1423 net946
*1424 net947
*1425 net948
*1426 net949
*1427 net95
*1428 net950
*1429 net951
*1430 net952
*1431 net953
*1432 net954
*1433 net955
*1434 net956
*1435 net957
*1436 net958
*1437 net959
*1438 net96
*1439 net960
*1440 net961
*1441 net962
*1442 net963
*1443 net964
*1444 net965
*1445 net966
*1446 net967
*1447 net968
*1448 net969
*1449 net97
*1450 net970
*1451 net971
*1452 net972
*1453 net973
*1454 net974
*1455 net975
*1456 net976
*1457 net977
*1458 net978
*1459 net979
*1460 net98
*1461 net980
*1462 net981
*1463 net982
*1464 net983
*1465 net984
*1466 net985
*1467 net986
*1468 net987
*1469 net988
*1470 net989
*1471 net99
*1472 net990
*1473 net991
*1474 net992
*1475 net993
*1476 net994
*1477 net995
*1478 net996
*1479 net997
*1480 net998
*1481 net999
*1482 ANTENNA_c100_B
*1483 ANTENNA_c101_CLK
*1484 ANTENNA_c101_SCD
*1485 ANTENNA_c102_A1
*1486 ANTENNA_c102_S0
*1487 ANTENNA_c102_S1
*1488 ANTENNA_c109_A3
*1489 ANTENNA_c109_S1
*1490 ANTENNA_c111_A
*1491 ANTENNA_c117_X
*1492 ANTENNA_c118_CLK_N
*1493 ANTENNA_c118_RESET_B
*1494 ANTENNA_c118_SCD
*1495 ANTENNA_c119_B
*1496 ANTENNA_c124_CLK
*1497 ANTENNA_c126_CLK_N
*1498 ANTENNA_c127_CLK_N
*1499 ANTENNA_c128_A1
*1500 ANTENNA_c129_S1
*1501 ANTENNA_c130_B1
*1502 ANTENNA_c131_CLK
*1503 ANTENNA_c132_A
*1504 ANTENNA_c132_B
*1505 ANTENNA_c133_A
*1506 ANTENNA_c135_A
*1507 ANTENNA_c135_B
*1508 ANTENNA_c136_X
*1509 ANTENNA_c137_X
*1510 ANTENNA_c138_B
*1511 ANTENNA_c138_C_N
*1512 ANTENNA_c138_X
*1513 ANTENNA_c139_B
*1514 ANTENNA_c139_X
*1515 ANTENNA_c140_X
*1516 ANTENNA_c141_CLK
*1517 ANTENNA_c141_D
*1518 ANTENNA_c141_RESET_B
*1519 ANTENNA_c141_SCD
*1520 ANTENNA_c141_SCE
*1521 ANTENNA_c142_B
*1522 ANTENNA_c144_CLK_N
*1523 ANTENNA_c144_D
*1524 ANTENNA_c144_RESET_B
*1525 ANTENNA_c144_SCE
*1526 ANTENNA_c145_A2
*1527 ANTENNA_c146_A2
*1528 ANTENNA_c146_C1
*1529 ANTENNA_c146_D1
*1530 ANTENNA_c146_X
*1531 ANTENNA_c147_CLK_N
*1532 ANTENNA_c147_D
*1533 ANTENNA_c147_SCD
*1534 ANTENNA_c147_SCE
*1535 ANTENNA_c148_X
*1536 ANTENNA_c149_C1
*1537 ANTENNA_c149_D1
*1538 ANTENNA_c150_A1
*1539 ANTENNA_c150_B1
*1540 ANTENNA_c150_D1
*1541 ANTENNA_c150_X
*1542 ANTENNA_c151_A
*1543 ANTENNA_c151_C
*1544 ANTENNA_c151_X
*1545 ANTENNA_c152_CLK
*1546 ANTENNA_c152_Q
*1547 ANTENNA_c152_Q_N
*1548 ANTENNA_c152_SCE
*1549 ANTENNA_c152_SET_B
*1550 ANTENNA_c153_A1
*1551 ANTENNA_c153_A2
*1552 ANTENNA_c153_B1
*1553 ANTENNA_c153_D1
*1554 ANTENNA_c154_B
*1555 ANTENNA_c156_C_N
*1556 ANTENNA_c156_X
*1557 ANTENNA_c159_B
*1558 ANTENNA_c159_C
*1559 ANTENNA_c160_C_N
*1560 ANTENNA_c160_X
*1561 ANTENNA_c162_A2
*1562 ANTENNA_c162_A3
*1563 ANTENNA_c162_S1
*1564 ANTENNA_c163_A
*1565 ANTENNA_c163_B
*1566 ANTENNA_c163_C
*1567 ANTENNA_c163_X
*1568 ANTENNA_c166_A2
*1569 ANTENNA_c166_A3
*1570 ANTENNA_c166_S0
*1571 ANTENNA_c166_S1
*1572 ANTENNA_c166_X
*1573 ANTENNA_c167_A
*1574 ANTENNA_c167_B
*1575 ANTENNA_c167_C
*1576 ANTENNA_c167_X
*1577 ANTENNA_c168_A2
*1578 ANTENNA_c168_B1
*1579 ANTENNA_c168_C1
*1580 ANTENNA_c168_D1
*1581 ANTENNA_c169_C
*1582 ANTENNA_c170_CLK_N
*1583 ANTENNA_c170_Q
*1584 ANTENNA_c170_RESET_B
*1585 ANTENNA_c170_SCE
*1586 ANTENNA_c171_A1
*1587 ANTENNA_c171_S0
*1588 ANTENNA_c172_A1
*1589 ANTENNA_c172_A2
*1590 ANTENNA_c172_S0
*1591 ANTENNA_c173_A1
*1592 ANTENNA_c173_A3
*1593 ANTENNA_c173_S0
*1594 ANTENNA_c174_X
*1595 ANTENNA_c175_A0
*1596 ANTENNA_c175_A1
*1597 ANTENNA_c175_A2
*1598 ANTENNA_c175_A3
*1599 ANTENNA_c176_A
*1600 ANTENNA_c177_B
*1601 ANTENNA_c178_C_N
*1602 ANTENNA_c178_D_N
*1603 ANTENNA_c180_X
*1604 ANTENNA_c181_CLK
*1605 ANTENNA_c181_Q
*1606 ANTENNA_c181_RESET_B
*1607 ANTENNA_c181_SCD
*1608 ANTENNA_c181_SCE
*1609 ANTENNA_c182_B
*1610 ANTENNA_c182_C_N
*1611 ANTENNA_c182_D_N
*1612 ANTENNA_c184_D_N
*1613 ANTENNA_c184_X
*1614 ANTENNA_c187_A1
*1615 ANTENNA_c187_S1
*1616 ANTENNA_c193_A3
*1617 ANTENNA_c195_A0
*1618 ANTENNA_c196_A
*1619 ANTENNA_c196_X
*1620 ANTENNA_c197_C_N
*1621 ANTENNA_c197_D_N
*1622 ANTENNA_c200_B
*1623 ANTENNA_c200_C
*1624 ANTENNA_c201_C
*1625 ANTENNA_c202_X
*1626 ANTENNA_c204_A
*1627 ANTENNA_c204_B
*1628 ANTENNA_c209_A2
*1629 ANTENNA_c209_S1
*1630 ANTENNA_c211_X
*1631 ANTENNA_c212_A
*1632 ANTENNA_c212_B
*1633 ANTENNA_c212_C_N
*1634 ANTENNA_c212_X
*1635 ANTENNA_c213_A0
*1636 ANTENNA_c213_A1
*1637 ANTENNA_c213_A2
*1638 ANTENNA_c213_A3
*1639 ANTENNA_c213_S1
*1640 ANTENNA_c214_A2
*1641 ANTENNA_c214_C1
*1642 ANTENNA_c214_D1
*1643 ANTENNA_c215_S0
*1644 ANTENNA_c215_S1
*1645 ANTENNA_c216_A
*1646 ANTENNA_c216_D_N
*1647 ANTENNA_c217_A1
*1648 ANTENNA_c217_B1
*1649 ANTENNA_c217_D1
*1650 ANTENNA_c218_C1
*1651 ANTENNA_c219_A
*1652 ANTENNA_c219_B
*1653 ANTENNA_c219_C
*1654 ANTENNA_c219_X
*1655 ANTENNA_c220_B
*1656 ANTENNA_c222_X
*1657 ANTENNA_c223_A
*1658 ANTENNA_c225_A
*1659 ANTENNA_c225_B
*1660 ANTENNA_c226_A
*1661 ANTENNA_c226_B
*1662 ANTENNA_c227_B
*1663 ANTENNA_c230_B
*1664 ANTENNA_c230_X
*1665 ANTENNA_c231_C
*1666 ANTENNA_c231_X
*1667 ANTENNA_c232_A0
*1668 ANTENNA_c232_A3
*1669 ANTENNA_c232_S1
*1670 ANTENNA_c233_A0
*1671 ANTENNA_c233_A1
*1672 ANTENNA_c233_A3
*1673 ANTENNA_c233_S1
*1674 ANTENNA_c234_C
*1675 ANTENNA_c234_X
*1676 ANTENNA_c236_A0
*1677 ANTENNA_c236_A2
*1678 ANTENNA_c236_A3
*1679 ANTENNA_c239_A3
*1680 ANTENNA_c239_S1
*1681 ANTENNA_c241_CLK_N
*1682 ANTENNA_c241_RESET_B
*1683 ANTENNA_c241_SCD
*1684 ANTENNA_c241_SCE
*1685 ANTENNA_c244_A
*1686 ANTENNA_c244_B
*1687 ANTENNA_c244_C
*1688 ANTENNA_c245_CLK
*1689 ANTENNA_c245_SCE
*1690 ANTENNA_c246_B
*1691 ANTENNA_c246_C_N
*1692 ANTENNA_c247_A
*1693 ANTENNA_c248_C
*1694 ANTENNA_c250_C_N
*1695 ANTENNA_c251_CLK_N
*1696 ANTENNA_c252_C_N
*1697 ANTENNA_c255_A
*1698 ANTENNA_c257_B
*1699 ANTENNA_c257_C
*1700 ANTENNA_c259_C1
*1701 ANTENNA_c262_D1
*1702 ANTENNA_c263_A0
*1703 ANTENNA_c264_X
*1704 ANTENNA_c269_A
*1705 ANTENNA_c269_X
*1706 ANTENNA_c270_B
*1707 ANTENNA_c270_C
*1708 ANTENNA_c271_B
*1709 ANTENNA_c272_CLK
*1710 ANTENNA_c272_D
*1711 ANTENNA_c272_RESET_B
*1712 ANTENNA_c273_C_N
*1713 ANTENNA_c274_A
*1714 ANTENNA_c274_C_N
*1715 ANTENNA_c276_A
*1716 ANTENNA_c277_A
*1717 ANTENNA_c278_X
*1718 ANTENNA_c279_A1
*1719 ANTENNA_c279_S1
*1720 ANTENNA_c280_CLK_N
*1721 ANTENNA_c280_Q
*1722 ANTENNA_c280_SCD
*1723 ANTENNA_c281_A0
*1724 ANTENNA_c282_CLK
*1725 ANTENNA_c282_Q
*1726 ANTENNA_c282_SCE
*1727 ANTENNA_c283_S1
*1728 ANTENNA_c284_A1
*1729 ANTENNA_c284_S0
*1730 ANTENNA_c285_A0
*1731 ANTENNA_c285_A3
*1732 ANTENNA_c285_S0
*1733 ANTENNA_c285_S1
*1734 ANTENNA_c289_A
*1735 ANTENNA_c289_B
*1736 ANTENNA_c289_C
*1737 ANTENNA_c290_B
*1738 ANTENNA_c291_X
*1739 ANTENNA_c293_A3
*1740 ANTENNA_c295_A2
*1741 ANTENNA_c295_S1
*1742 ANTENNA_c297_A
*1743 ANTENNA_c297_X
*1744 ANTENNA_c298_C
*1745 ANTENNA_c298_X
*1746 ANTENNA_c299_X
*1747 ANTENNA_c300_C
*1748 ANTENNA_c301_X
*1749 ANTENNA_c302_A3
*1750 ANTENNA_c302_S0
*1751 ANTENNA_c302_S1
*1752 ANTENNA_c303_CLK
*1753 ANTENNA_c303_Q
*1754 ANTENNA_c303_SCE
*1755 ANTENNA_c303_SET_B
*1756 ANTENNA_c304_A3
*1757 ANTENNA_c304_S1
*1758 ANTENNA_c305_C
*1759 ANTENNA_c306_A2
*1760 ANTENNA_c306_B1
*1761 ANTENNA_c306_C1
*1762 ANTENNA_c306_D1
*1763 ANTENNA_c307_A1
*1764 ANTENNA_c308_A
*1765 ANTENNA_c308_B
*1766 ANTENNA_c309_A
*1767 ANTENNA_c310_A
*1768 ANTENNA_c310_B
*1769 ANTENNA_c311_A
*1770 ANTENNA_c314_B
*1771 ANTENNA_c314_X
*1772 ANTENNA_c317_D
*1773 ANTENNA_c317_SET_B
*1774 ANTENNA_c319_A2
*1775 ANTENNA_c319_A3
*1776 ANTENNA_c319_S0
*1777 ANTENNA_c322_A2
*1778 ANTENNA_c322_D1
*1779 ANTENNA_c323_C_N
*1780 ANTENNA_c325_Q
*1781 ANTENNA_c325_Q_N
*1782 ANTENNA_c326_D1
*1783 ANTENNA_c327_X
*1784 ANTENNA_c328_C_N
*1785 ANTENNA_c328_D_N
*1786 ANTENNA_c329_A1
*1787 ANTENNA_c329_S0
*1788 ANTENNA_c330_D
*1789 ANTENNA_c330_Q
*1790 ANTENNA_c330_SCD
*1791 ANTENNA_c331_CLK
*1792 ANTENNA_c331_D
*1793 ANTENNA_c331_SCD
*1794 ANTENNA_c332_A
*1795 ANTENNA_c333_B
*1796 ANTENNA_c333_C
*1797 ANTENNA_c333_X
*1798 ANTENNA_c334_CLK
*1799 ANTENNA_c334_Q
*1800 ANTENNA_c334_SET_B
*1801 ANTENNA_c335_C
*1802 ANTENNA_c336_B
*1803 ANTENNA_c336_D_N
*1804 ANTENNA_c337_A2
*1805 ANTENNA_c337_D1
*1806 ANTENNA_c339_A
*1807 ANTENNA_c339_C
*1808 ANTENNA_c340_X
*1809 ANTENNA_c341_C_N
*1810 ANTENNA_c341_X
*1811 ANTENNA_c342_CLK
*1812 ANTENNA_c342_D
*1813 ANTENNA_c342_DE
*1814 ANTENNA_c342_Q
*1815 ANTENNA_c342_Q_N
*1816 ANTENNA_c342_SCD
*1817 ANTENNA_c343_A
*1818 ANTENNA_c343_C_N
*1819 ANTENNA_c343_D_N
*1820 ANTENNA_c344_A2
*1821 ANTENNA_c344_B1
*1822 ANTENNA_c345_A1
*1823 ANTENNA_c345_A3
*1824 ANTENNA_c345_S0
*1825 ANTENNA_c346_A2
*1826 ANTENNA_c346_A3
*1827 ANTENNA_c346_S1
*1828 ANTENNA_c347_CLK
*1829 ANTENNA_c347_D
*1830 ANTENNA_c347_Q
*1831 ANTENNA_c347_Q_N
*1832 ANTENNA_c347_RESET_B
*1833 ANTENNA_c347_SCD
*1834 ANTENNA_c348_A1
*1835 ANTENNA_c348_A2
*1836 ANTENNA_c348_S0
*1837 ANTENNA_c349_A2
*1838 ANTENNA_c350_A1
*1839 ANTENNA_c350_C1
*1840 ANTENNA_c353_A
*1841 ANTENNA_c353_C
*1842 ANTENNA_c354_B
*1843 ANTENNA_c355_A
*1844 ANTENNA_c355_D_N
*1845 ANTENNA_c356_X
*1846 ANTENNA_c357_A0
*1847 ANTENNA_c357_A2
*1848 ANTENNA_c357_A3
*1849 ANTENNA_c357_S0
*1850 ANTENNA_c357_S1
*1851 ANTENNA_c358_A3