*SPEF "ieee 1481-1999"
*DESIGN "netlist_1"
*DATE "23:41:29 Saturday August 17, 2024"
*VENDOR "The OpenROAD Project"
*PROGRAM "OpenROAD"
*VERSION "d423155d69de7f683a23f6916ead418a615ad4ad"
*DESIGN_FLOW "NAME_SCOPE LOCAL" "PIN_CAP NONE"
*DIVIDER /
*DELIMITER :
*BUS_DELIMITER []
*T_UNIT 1 NS
*C_UNIT 1 PF
*R_UNIT 1 OHM
*L_UNIT 1 HENRY

*NAME_MAP
*3 clk
*4 in0
*5 in1
*6 in10
*7 in11
*8 in12
*9 in13
*10 in14
*11 in15
*12 in16
*13 in17
*14 in18
*15 in19
*16 in2
*17 in20
*18 in21
*19 in22
*20 in23
*21 in24
*22 in25
*23 in26
*24 in27
*25 in28
*26 in29
*27 in3
*28 in30
*29 in31
*30 in32
*31 in33
*32 in34
*33 in35
*34 in36
*35 in37
*36 in38
*37 in39
*38 in4
*39 in40
*40 in41
*41 in42
*42 in43
*43 in44
*44 in45
*45 in46
*46 in47
*47 in48
*48 in49
*49 in5
*50 in50
*51 in51
*52 in52
*53 in53
*54 in54
*55 in55
*56 in56
*57 in57
*58 in58
*59 in59
*60 in6
*61 in60
*62 in61
*63 in62
*64 in63
*65 in64
*66 in65
*67 in66
*68 in67
*69 in68
*70 in69
*71 in7
*72 in70
*73 in71
*74 in72
*75 in73
*76 in74
*77 in75
*78 in76
*79 in77
*80 in78
*81 in79
*82 in8
*83 in80
*84 in81
*85 in82
*86 in83
*87 in84
*88 in85
*89 in86
*90 in87
*91 in88
*92 in89
*93 in9
*94 in90
*95 in91
*96 in92
*97 in93
*98 in94
*99 in95
*100 in96
*101 in97
*102 in98
*103 in99
*104 out0
*105 out1
*106 out10
*107 out11
*108 out12
*109 out13
*110 out14
*111 out15
*112 out16
*113 out17
*114 out18
*115 out19
*116 out2
*117 out20
*118 out21
*119 out22
*120 out23
*121 out24
*122 out25
*123 out26
*124 out27
*125 out28
*126 out29
*127 out3
*128 out30
*129 out31
*130 out32
*131 out33
*132 out34
*133 out35
*134 out36
*135 out37
*136 out38
*137 out39
*138 out4
*139 out40
*140 out41
*141 out42
*142 out43
*143 out44
*144 out45
*145 out46
*146 out47
*147 out48
*148 out49
*149 out5
*150 out50
*151 out51
*152 out52
*153 out53
*154 out54
*155 out55
*156 out56
*157 out57
*158 out58
*159 out59
*160 out6
*161 out60
*162 out61
*163 out62
*164 out63
*165 out64
*166 out65
*167 out66
*168 out67
*169 out68
*170 out69
*171 out7
*172 out70
*173 out71
*174 out72
*175 out73
*176 out74
*177 out75
*178 out76
*179 out77
*180 out78
*181 out79
*182 out8
*183 out80
*184 out81
*185 out82
*186 out83
*187 out84
*188 out85
*189 out86
*190 out87
*191 out88
*192 out89
*193 out9
*194 out90
*195 out91
*196 out92
*197 out93
*198 out94
*199 out95
*200 out96
*201 out97
*202 out98
*203 out99
*204 rst
*205 clknet_0_clk
*206 clknet_0_net102
*207 clknet_0_net105
*208 clknet_0_net106
*209 clknet_0_net108
*210 clknet_0_net111
*211 clknet_0_net112
*212 clknet_0_net113
*213 clknet_0_net118
*214 clknet_0_net170
*215 clknet_0_net173
*216 clknet_0_net174
*217 clknet_0_net175
*218 clknet_0_net178
*219 clknet_0_net184
*220 clknet_0_net185
*221 clknet_0_net206
*222 clknet_0_net288
*223 clknet_0_net289
*224 clknet_0_net309
*225 clknet_0_net327
*226 clknet_0_net419
*227 clknet_0_net421
*228 clknet_0_net423
*229 clknet_0_net433
*230 clknet_0_net454
*231 clknet_0_net455
*232 clknet_0_net530
*233 clknet_0_net602
*234 clknet_0_net642
*235 clknet_0_net643
*236 clknet_0_net662
*237 clknet_0_net663
*238 clknet_0_net679
*239 clknet_0_net680
*240 clknet_0_net806
*241 clknet_1_0__leaf_net102
*242 clknet_1_0__leaf_net105
*243 clknet_1_0__leaf_net106
*244 clknet_1_0__leaf_net108
*245 clknet_1_0__leaf_net111
*246 clknet_1_0__leaf_net112
*247 clknet_1_0__leaf_net113
*248 clknet_1_0__leaf_net118
*249 clknet_1_0__leaf_net170
*250 clknet_1_0__leaf_net173
*251 clknet_1_0__leaf_net174
*252 clknet_1_0__leaf_net175
*253 clknet_1_0__leaf_net178
*254 clknet_1_0__leaf_net184
*255 clknet_1_0__leaf_net185
*256 clknet_1_0__leaf_net206
*257 clknet_1_0__leaf_net288
*258 clknet_1_0__leaf_net289
*259 clknet_1_0__leaf_net309
*260 clknet_1_0__leaf_net327
*261 clknet_1_0__leaf_net419
*262 clknet_1_0__leaf_net421
*263 clknet_1_0__leaf_net423
*264 clknet_1_0__leaf_net433
*265 clknet_1_0__leaf_net454
*266 clknet_1_0__leaf_net455
*267 clknet_1_0__leaf_net530
*268 clknet_1_0__leaf_net602
*269 clknet_1_0__leaf_net642
*270 clknet_1_0__leaf_net643
*271 clknet_1_0__leaf_net662
*272 clknet_1_0__leaf_net663
*273 clknet_1_0__leaf_net679
*274 clknet_1_0__leaf_net680
*275 clknet_1_0__leaf_net806
*276 clknet_1_1__leaf_net102
*277 clknet_1_1__leaf_net105
*278 clknet_1_1__leaf_net106
*279 clknet_1_1__leaf_net108
*280 clknet_1_1__leaf_net111
*281 clknet_1_1__leaf_net112
*282 clknet_1_1__leaf_net113
*283 clknet_1_1__leaf_net118
*284 clknet_1_1__leaf_net170
*285 clknet_1_1__leaf_net173
*286 clknet_1_1__leaf_net174
*287 clknet_1_1__leaf_net175
*288 clknet_1_1__leaf_net178
*289 clknet_1_1__leaf_net184
*290 clknet_1_1__leaf_net185
*291 clknet_1_1__leaf_net206
*292 clknet_1_1__leaf_net288
*293 clknet_1_1__leaf_net289
*294 clknet_1_1__leaf_net309
*295 clknet_1_1__leaf_net327
*296 clknet_1_1__leaf_net419
*297 clknet_1_1__leaf_net421
*298 clknet_1_1__leaf_net423
*299 clknet_1_1__leaf_net433
*300 clknet_1_1__leaf_net454
*301 clknet_1_1__leaf_net455
*302 clknet_1_1__leaf_net530
*303 clknet_1_1__leaf_net602
*304 clknet_1_1__leaf_net642
*305 clknet_1_1__leaf_net643
*306 clknet_1_1__leaf_net662
*307 clknet_1_1__leaf_net663
*308 clknet_1_1__leaf_net679
*309 clknet_1_1__leaf_net680
*310 clknet_1_1__leaf_net806
*311 clknet_2_0__leaf_clk
*312 clknet_2_1__leaf_clk
*313 clknet_2_2__leaf_clk
*314 clknet_2_3__leaf_clk
*315 clknet_leaf_0_clk
*316 clknet_leaf_10_clk
*317 clknet_leaf_11_clk
*318 clknet_leaf_12_clk
*319 clknet_leaf_13_clk
*320 clknet_leaf_14_clk
*321 clknet_leaf_15_clk
*322 clknet_leaf_16_clk
*323 clknet_leaf_17_clk
*324 clknet_leaf_18_clk
*325 clknet_leaf_19_clk
*326 clknet_leaf_1_clk
*327 clknet_leaf_20_clk
*328 clknet_leaf_21_clk
*329 clknet_leaf_22_clk
*330 clknet_leaf_23_clk
*331 clknet_leaf_24_clk
*332 clknet_leaf_25_clk
*333 clknet_leaf_26_clk
*334 clknet_leaf_27_clk
*335 clknet_leaf_28_clk
*336 clknet_leaf_29_clk
*337 clknet_leaf_2_clk
*338 clknet_leaf_30_clk
*339 clknet_leaf_31_clk
*340 clknet_leaf_32_clk
*341 clknet_leaf_33_clk
*342 clknet_leaf_34_clk
*343 clknet_leaf_35_clk
*344 clknet_leaf_3_clk
*345 clknet_leaf_4_clk
*346 clknet_leaf_5_clk
*347 clknet_leaf_6_clk
*348 clknet_leaf_7_clk
*349 clknet_leaf_8_clk
*350 clknet_leaf_9_clk
*351 net0
*352 net1
*353 net10
*354 net100
*355 net101
*356 net102
*357 net103
*358 net104
*359 net105
*360 net106
*361 net107
*362 net108
*363 net109
*364 net11
*365 net110
*366 net111
*367 net112
*368 net113
*369 net114
*370 net115
*371 net116
*372 net117
*373 net118
*374 net119
*375 net12
*376 net120
*377 net121
*378 net122
*379 net123
*380 net124
*381 net125
*382 net126
*383 net127
*384 net128
*385 net129
*386 net13
*387 net130
*388 net131
*389 net132
*390 net133
*391 net134
*392 net135
*393 net136
*394 net137
*395 net138
*396 net139
*397 net14
*398 net140
*399 net141
*400 net142
*401 net143
*402 net144
*403 net145
*404 net146
*405 net147
*406 net148
*407 net149
*408 net15
*409 net150
*410 net151
*411 net152
*412 net153
*413 net154
*414 net155
*415 net156
*416 net157
*417 net158
*418 net159
*419 net16
*420 net160
*421 net161
*422 net162
*423 net163
*424 net164
*425 net165
*426 net166
*427 net167
*428 net168
*429 net169
*430 net17
*431 net170
*432 net171
*433 net172
*434 net173
*435 net174
*436 net175
*437 net176
*438 net177
*439 net178
*440 net179
*441 net18
*442 net180
*443 net181
*444 net182
*445 net183
*446 net184
*447 net185
*448 net186
*449 net187
*450 net188
*451 net189
*452 net19
*453 net190
*454 net191
*455 net192
*456 net193
*457 net194
*458 net195
*459 net196
*460 net197
*461 net198
*462 net199
*463 net2
*464 net20
*465 net200
*466 net201
*467 net202
*468 net203
*469 net204
*470 net205
*471 net206
*472 net207
*473 net208
*474 net209
*475 net21
*476 net210
*477 net211
*478 net212
*479 net213
*480 net214
*481 net215
*482 net216
*483 net217
*484 net218
*485 net219
*486 net22
*487 net220
*488 net221
*489 net222
*490 net223
*491 net224
*492 net225
*493 net226
*494 net227
*495 net228
*496 net229
*497 net23
*498 net230
*499 net231
*500 net232
*501 net233
*502 net234
*503 net235
*504 net236
*505 net237
*506 net238
*507 net239
*508 net24
*509 net240
*510 net241
*511 net242
*512 net243
*513 net244
*514 net245
*515 net246
*516 net247
*517 net248
*518 net249
*519 net25
*520 net250
*521 net251
*522 net252
*523 net253
*524 net254
*525 net255
*526 net256
*527 net257
*528 net258
*529 net259
*530 net26
*531 net260
*532 net261
*533 net262
*534 net263
*535 net264
*536 net265
*537 net266
*538 net267
*539 net268
*540 net269
*541 net27
*542 net270
*543 net271
*544 net272
*545 net273
*546 net274
*547 net275
*548 net276
*549 net277
*550 net278
*551 net279
*552 net28
*553 net280
*554 net281
*555 net282
*556 net283
*557 net284
*558 net285
*559 net286
*560 net287
*561 net288
*562 net289
*563 net29
*564 net290
*565 net291
*566 net292
*567 net293
*568 net294
*569 net295
*570 net296
*571 net297
*572 net298
*573 net299
*574 net3
*575 net30
*576 net300
*577 net301
*578 net302
*579 net303
*580 net304
*581 net305
*582 net306
*583 net307
*584 net308
*585 net309
*586 net31
*587 net310
*588 net311
*589 net312
*590 net313
*591 net314
*592 net315
*593 net316
*594 net317
*595 net318
*596 net319
*597 net32
*598 net320
*599 net321
*600 net322
*601 net323
*602 net324
*603 net325
*604 net326
*605 net327
*606 net328
*607 net329
*608 net33
*609 net330
*610 net331
*611 net332
*612 net333
*613 net334
*614 net335
*615 net336
*616 net337
*617 net338
*618 net339
*619 net34
*620 net340
*621 net341
*622 net342
*623 net343
*624 net344
*625 net345
*626 net346
*627 net347
*628 net348
*629 net349
*630 net35
*631 net350
*632 net351
*633 net352
*634 net353
*635 net354
*636 net355
*637 net356
*638 net357
*639 net358
*640 net359
*641 net36
*642 net360
*643 net361
*644 net362
*645 net363
*646 net364
*647 net365
*648 net366
*649 net367
*650 net368
*651 net369
*652 net37
*653 net370
*654 net371
*655 net372
*656 net373
*657 net374
*658 net375
*659 net376
*660 net377
*661 net378
*662 net379
*663 net38
*664 net380
*665 net381
*666 net382
*667 net383
*668 net384
*669 net385
*670 net386
*671 net387
*672 net388
*673 net389
*674 net39
*675 net390
*676 net391
*677 net392
*678 net393
*679 net394
*680 net395
*681 net396
*682 net397
*683 net398
*684 net399
*685 net4
*686 net40
*687 net400
*688 net401
*689 net402
*690 net403
*691 net404
*692 net405
*693 net406
*694 net407
*695 net408
*696 net409
*697 net41
*698 net410
*699 net411
*700 net412
*701 net413
*702 net414
*703 net415
*704 net416
*705 net417
*706 net418
*707 net419
*708 net42
*709 net420
*710 net421
*711 net422
*712 net423
*713 net424
*714 net425
*715 net426
*716 net427
*717 net428
*718 net429
*719 net43
*720 net430
*721 net431
*722 net432
*723 net433
*724 net434
*725 net435
*726 net436
*727 net437
*728 net438
*729 net439
*730 net44
*731 net440
*732 net441
*733 net442
*734 net443
*735 net444
*736 net445
*737 net446
*738 net447
*739 net448
*740 net449
*741 net45
*742 net450
*743 net451
*744 net452
*745 net453
*746 net454
*747 net455
*748 net456
*749 net457
*750 net458
*751 net459
*752 net46
*753 net460
*754 net461
*755 net462
*756 net463
*757 net464
*758 net465
*759 net466
*760 net467
*761 net468
*762 net469
*763 net47
*764 net470
*765 net471
*766 net472
*767 net473
*768 net474
*769 net475
*770 net476
*771 net477
*772 net478
*773 net479
*774 net48
*775 net480
*776 net481
*777 net482
*778 net483
*779 net484
*780 net485
*781 net486
*782 net487
*783 net488
*784 net489
*785 net49
*786 net490
*787 net491
*788 net492
*789 net493
*790 net494
*791 net495
*792 net496
*793 net497
*794 net498
*795 net499
*796 net5
*797 net50
*798 net500
*799 net501
*800 net502
*801 net503
*802 net504
*803 net505
*804 net506
*805 net507
*806 net508
*807 net509
*808 net51
*809 net510
*810 net511
*811 net512
*812 net513
*813 net514
*814 net515
*815 net516
*816 net517
*817 net518
*818 net519
*819 net52
*820 net520
*821 net521
*822 net522
*823 net523
*824 net524
*825 net525
*826 net526
*827 net527
*828 net528
*829 net529
*830 net53
*831 net530
*832 net531
*833 net532
*834 net533
*835 net534
*836 net535
*837 net536
*838 net537
*839 net538
*840 net539
*841 net54
*842 net540
*843 net541
*844 net542
*845 net543
*846 net544
*847 net545
*848 net546
*849 net547
*850 net548
*851 net549
*852 net55
*853 net550
*854 net551
*855 net552
*856 net553
*857 net554
*858 net555
*859 net556
*860 net557
*861 net558
*862 net559
*863 net56
*864 net560
*865 net561
*866 net562
*867 net563
*868 net564
*869 net565
*870 net566
*871 net567
*872 net568
*873 net569
*874 net57
*875 net570
*876 net571
*877 net572
*878 net573
*879 net574
*880 net575
*881 net576
*882 net577
*883 net578
*884 net579
*885 net58
*886 net580
*887 net581
*888 net582
*889 net583
*890 net584
*891 net585
*892 net586
*893 net587
*894 net588
*895 net589
*896 net59
*897 net590
*898 net591
*899 net592
*900 net593
*901 net594
*902 net595
*903 net596
*904 net597
*905 net598
*906 net599
*907 net6
*908 net60
*909 net600
*910 net601
*911 net602
*912 net603
*913 net604
*914 net605
*915 net606
*916 net607
*917 net608
*918 net609
*919 net61
*920 net610
*921 net611
*922 net612
*923 net613
*924 net614
*925 net615
*926 net616
*927 net617
*928 net618
*929 net619
*930 net62
*931 net620
*932 net621
*933 net622
*934 net623
*935 net624
*936 net625
*937 net626
*938 net627
*939 net628
*940 net629
*941 net63
*942 net630
*943 net631
*944 net632
*945 net633
*946 net634
*947 net635
*948 net636
*949 net637
*950 net638
*951 net639
*952 net64
*953 net640
*954 net641
*955 net642
*956 net643
*957 net644
*958 net645
*959 net646
*960 net647
*961 net648
*962 net649
*963 net65
*964 net650
*965 net651
*966 net652
*967 net653
*968 net654
*969 net655
*970 net656
*971 net657
*972 net658
*973 net659
*974 net66
*975 net660
*976 net661
*977 net662
*978 net663
*979 net664
*980 net665
*981 net666
*982 net667
*983 net668
*984 net669
*985 net67
*986 net670
*987 net671
*988 net672
*989 net673
*990 net674
*991 net675
*992 net676
*993 net677
*994 net678
*995 net679
*996 net68
*997 net680
*998 net681
*999 net682
*1000 net683
*1001 net684
*1002 net685
*1003 net686
*1004 net687
*1005 net688
*1006 net689
*1007 net69
*1008 net690
*1009 net691
*1010 net692
*1011 net693
*1012 net694
*1013 net695
*1014 net696
*1015 net697
*1016 net698
*1017 net699
*1018 net7
*1019 net70
*1020 net700
*1021 net701
*1022 net702
*1023 net703
*1024 net704
*1025 net705
*1026 net706
*1027 net707
*1028 net708
*1029 net709
*1030 net71
*1031 net710
*1032 net711
*1033 net712
*1034 net713
*1035 net714
*1036 net715
*1037 net716
*1038 net717
*1039 net718
*1040 net719
*1041 net72
*1042 net720
*1043 net721
*1044 net722
*1045 net723
*1046 net724
*1047 net725
*1048 net726
*1049 net727
*1050 net728
*1051 net729
*1052 net73
*1053 net730
*1054 net731
*1055 net732
*1056 net733
*1057 net734
*1058 net735
*1059 net736
*1060 net737
*1061 net738
*1062 net739
*1063 net74
*1064 net740
*1065 net741
*1066 net742
*1067 net743
*1068 net744
*1069 net745
*1070 net746
*1071 net747
*1072 net748
*1073 net749
*1074 net75
*1075 net750
*1076 net751
*1077 net752
*1078 net753
*1079 net754
*1080 net755
*1081 net756
*1082 net757
*1083 net758
*1084 net759
*1085 net76
*1086 net760
*1087 net761
*1088 net762
*1089 net763
*1090 net764
*1091 net765
*1092 net766
*1093 net767
*1094 net768
*1095 net769
*1096 net77
*1097 net770
*1098 net771
*1099 net772
*1100 net773
*1101 net774
*1102 net775
*1103 net776
*1104 net777
*1105 net778
*1106 net779
*1107 net78
*1108 net780
*1109 net781
*1110 net782
*1111 net783
*1112 net784
*1113 net785
*1114 net786
*1115 net787
*1116 net788
*1117 net789
*1118 net79
*1119 net790
*1120 net791
*1121 net792
*1122 net793
*1123 net794
*1124 net795
*1125 net796
*1126 net797
*1127 net798
*1128 net799
*1129 net8
*1130 net80
*1131 net800
*1132 net801
*1133 net802
*1134 net803
*1135 net804
*1136 net805
*1137 net806
*1138 net807
*1139 net808
*1140 net809
*1141 net81
*1142 net810
*1143 net811
*1144 net812
*1145 net813
*1146 net814
*1147 net815
*1148 net816
*1149 net817
*1150 net818
*1151 net819
*1152 net82
*1153 net820
*1154 net821
*1155 net822
*1156 net823
*1157 net824
*1158 net825
*1159 net826
*1160 net827
*1161 net828
*1162 net829
*1163 net83
*1164 net830
*1165 net831
*1166 net832
*1167 net833
*1168 net834
*1169 net835
*1170 net836
*1171 net837
*1172 net838
*1173 net839
*1174 net84
*1175 net840
*1176 net841
*1177 net842
*1178 net843
*1179 net844
*1180 net845
*1181 net846
*1182 net847
*1183 net848
*1184 net849
*1185 net85
*1186 net850
*1187 net851
*1188 net852
*1189 net853
*1190 net854
*1191 net855
*1192 net856
*1193 net857
*1194 net858
*1195 net859
*1196 net86
*1197 net860
*1198 net861
*1199 net862
*1200 net863
*1201 net864
*1202 net865
*1203 net866
*1204 net867
*1205 net868
*1206 net869
*1207 net87
*1208 net870
*1209 net871
*1210 net872
*1211 net873
*1212 net874
*1213 net875
*1214 net876
*1215 net877
*1216 net878
*1217 net879
*1218 net88
*1219 net880
*1220 net881
*1221 net882
*1222 net883
*1223 net884
*1224 net885
*1225 net886
*1226 net887
*1227 net888
*1228 net889
*1229 net89
*1230 net890
*1231 net891
*1232 net892
*1233 net893
*1234 net894
*1235 net895
*1236 net896
*1237 net897
*1238 net898
*1239 net899
*1240 net9
*1241 net90
*1242 net900
*1243 net901
*1244 net902
*1245 net903
*1246 net904
*1247 net905
*1248 net906
*1249 net907
*1250 net908
*1251 net909
*1252 net91
*1253 net910
*1254 net911
*1255 net912
*1256 net913
*1257 net914
*1258 net915
*1259 net916
*1260 net917
*1261 net918
*1262 net919
*1263 net92
*1264 net920
*1265 net921
*1266 net922
*1267 net93
*1268 net94
*1269 net95
*1270 net96
*1271 net97
*1272 net98
*1273 net99
*1274 ANTENNA_c103_X
*1275 ANTENNA_c121_X
*1276 ANTENNA_c122_A
*1277 ANTENNA_c125_RESET_B
*1278 ANTENNA_c137_RESET_B
*1279 ANTENNA_c139_RESET_B
*1280 ANTENNA_c176_X
*1281 ANTENNA_c180_A2
*1282 ANTENNA_c185_SET_B
*1283 ANTENNA_c188_S0
*1284 ANTENNA_c210_A
*1285 ANTENNA_c222_Q
*1286 ANTENNA_c223_X
*1287 ANTENNA_c224_B
*1288 ANTENNA_c228_Q
*1289 ANTENNA_c229_D1
*1290 ANTENNA_c296_B
*1291 ANTENNA_c305_A0
*1292 ANTENNA_c336_A
*1293 ANTENNA_c343_D
*1294 ANTENNA_c343_Q
*1295 ANTENNA_c344_D1
*1296 ANTENNA_c347_SCD
*1297 ANTENNA_c349_SCD
*1298 ANTENNA_c355_B
*1299 ANTENNA_c460_S0
*1300 ANTENNA_c460_S1
*1301 ANTENNA_c461_A3
*1302 ANTENNA_c461_S0
*1303 ANTENNA_c471_Q
*1304 ANTENNA_c472_SCE
*1305 ANTENNA_c475_SCE
*1306 ANTENNA_c725_D
*1307 ANTENNA_clkbuf_0_clk_A
*1308 ANTENNA_clkbuf_0_clk_X
*1309 ANTENNA_clkbuf_2_0__f_clk_A
*1310 ANTENNA_clkbuf_2_0__f_clk_X
*1311 ANTENNA_clkbuf_2_1__f_clk_A
*1312 ANTENNA_clkbuf_2_1__f_clk_X
*1313 ANTENNA_clkbuf_2_2__f_clk_A
*1314 ANTENNA_clkbuf_2_2__f_clk_X
*1315 ANTENNA_clkbuf_2_3__f_clk_A
*1316 ANTENNA_clkbuf_2_3__f_clk_X
*1317 ANTENNA_clkbuf_leaf_0_clk_A
*1318 ANTENNA_clkbuf_leaf_10_clk_A
*1319 ANTENNA_clkbuf_leaf_11_clk_A
*1320 ANTENNA_clkbuf_leaf_12_clk_A
*1321 ANTENNA_clkbuf_leaf_13_clk_A
*1322 ANTENNA_clkbuf_leaf_14_clk_A
*1323 ANTENNA_clkbuf_leaf_15_clk_A
*1324 ANTENNA_clkbuf_leaf_16_clk_A
*1325 ANTENNA_clkbuf_leaf_17_clk_A
*1326 ANTENNA_clkbuf_leaf_18_clk_A
*1327 ANTENNA_clkbuf_leaf_19_clk_A
*1328 ANTENNA_clkbuf_leaf_1_clk_A
*1329 ANTENNA_clkbuf_leaf_20_clk_A
*1330 ANTENNA_clkbuf_leaf_21_clk_A
*1331 ANTENNA_clkbuf_leaf_22_clk_A
*1332 ANTENNA_clkbuf_leaf_23_clk_A
*1333 ANTENNA_clkbuf_leaf_24_clk_A
*1334 ANTENNA_clkbuf_leaf_25_clk_A
*1335 ANTENNA_clkbuf_leaf_26_clk_A
*1336 ANTENNA_clkbuf_leaf_27_clk_A
*1337 ANTENNA_clkbuf_leaf_28_clk_A
*1338 ANTENNA_clkbuf_leaf_29_clk_A
*1339 ANTENNA_clkbuf_leaf_2_clk_A
*1340 ANTENNA_clkbuf_leaf_30_clk_A
*1341 ANTENNA_clkbuf_leaf_31_clk_A
*1342 ANTENNA_clkbuf_leaf_32_clk_A
*1343 ANTENNA_clkbuf_leaf_33_clk_A
*1344 ANTENNA_clkbuf_leaf_34_clk_A
*1345 ANTENNA_clkbuf_leaf_35_clk_A
*1346 ANTENNA_clkbuf_leaf_3_clk_A
*1347 ANTENNA_clkbuf_leaf_4_clk_A
*1348 ANTENNA_clkbuf_leaf_5_clk_A
*1349 ANTENNA_clkbuf_leaf_6_clk_A
*1350 ANTENNA_clkbuf_leaf_7_clk_A
*1351 ANTENNA_clkbuf_leaf_8_clk_A
*1352 ANTENNA_clkbuf_leaf_9_clk_A
*1353 ANTENNA_hold99_A
*1354 ANTENNA_input10_A
*1355 ANTENNA_input11_A
*1356 ANTENNA_input12_A
*1357 ANTENNA_input13_A
*1358 ANTENNA_input14_A
*1359 ANTENNA_input15_A
*1360 ANTENNA_input16_A
*1361 ANTENNA_input17_A
*1362 ANTENNA_input18_A
*1363 ANTENNA_input19_A
*1364 ANTENNA_input1_A
*1365 ANTENNA_input1_X
*1366 ANTENNA_input20_A
*1367 ANTENNA_input21_A
*1368 ANTENNA_input22_A
*1369 ANTENNA_input23_A
*1370 ANTENNA_input24_A
*1371 ANTENNA_input25_A
*1372 ANTENNA_input26_A
*1373 ANTENNA_input27_A
*1374 ANTENNA_input28_A
*1375 ANTENNA_input29_A
*1376 ANTENNA_input2_A
*1377 ANTENNA_input2_X
*1378 ANTENNA_input30_A
*1379 ANTENNA_input31_A
*1380 ANTENNA_input32_A
*1381 ANTENNA_input33_A
*1382 ANTENNA_input34_A
*1383 ANTENNA_input35_A
*1384 ANTENNA_input36_A
*1385 ANTENNA_input37_A
*1386 ANTENNA_input38_A
*1387 ANTENNA_input39_A
*1388 ANTENNA_input3_A
*1389 ANTENNA_input40_A
*1390 ANTENNA_input41_A
*1391 ANTENNA_input42_A
*1392 ANTENNA_input43_A
*1393 ANTENNA_input44_A
*1394 ANTENNA_input45_A
*1395 ANTENNA_input45_X
*1396 ANTENNA_input46_A
*1397 ANTENNA_input47_A
*1398 ANTENNA_input48_A
*1399 ANTENNA_input49_A
*1400 ANTENNA_input49_X
*1401 ANTENNA_input4_A
*1402 ANTENNA_input50_A
*1403 ANTENNA_input51_A
*1404 ANTENNA_input52_A
*1405 ANTENNA_input53_A
*1406 ANTENNA_input54_A
*1407 ANTENNA_input55_A
*1408 ANTENNA_input56_A
*1409 ANTENNA_input57_A
*1410 ANTENNA_input58_A
*1411 ANTENNA_input59_A
*1412 ANTENNA_input5_A
*1413 ANTENNA_input60_A
*1414 ANTENNA_input61_A
*1415 ANTENNA_input62_A
*1416 ANTENNA_input63_A
*1417 ANTENNA_input63_X
*1418 ANTENNA_input64_A
*1419 ANTENNA_input65_A
*1420 ANTENNA_input66_A
*1421 ANTENNA_input67_A
*1422 ANTENNA_input68_A
*1423 ANTENNA_input69_A
*1424 ANTENNA_input6_A
*1425 ANTENNA_input70_A
*1426 ANTENNA_input71_A
*1427 ANTENNA_input72_A
*1428 ANTENNA_input73_A
*1429 ANTENNA_input74_A
*1430 ANTENNA_input75_A
*1431 ANTENNA_input76_A
*1432 ANTENNA_input77_A
*1433 ANTENNA_input78_A
*1434 ANTENNA_input79_A
*1435 ANTENNA_input7_A
*1436 ANTENNA_input80_A
*1437 ANTENNA_input81_A
*1438 ANTENNA_input82_A
*1439 ANTENNA_input83_A
*1440 ANTENNA_input84_A
*1441 ANTENNA_input85_A
*1442 ANTENNA_input86_A
*1443 ANTENNA_input87_A
*1444 ANTENNA_input88_A
*1445 ANTENNA_input89_A
*1446 ANTENNA_input8_A
*1447 ANTENNA_input90_A
*1448 ANTENNA_input91_A
*1449 ANTENNA_input92_A
*1450 ANTENNA_input93_A
*1451 ANTENNA_input94_A
*1452 ANTENNA_input95_A
*1453 ANTENNA_input96_A
*1454 ANTENNA_input97_A
*1455 ANTENNA_input98_A
*1456 ANTENNA_input99_A
*1457 ANTENNA_input9_A
*1458 ANTENNA_merge733_RESET_B
*1459 ANTENNA_merge744_SCE
*1460 ANTENNA_merge753_SCD
*1461 ANTENNA_output102_A
*1462 ANTENNA_output104_A
*1463 ANTENNA_output109_A
*1464 ANTENNA_output113_A
*1465 ANTENNA_output117_A
*1466 ANTENNA_output118_A
*1467 ANTENNA_output121_A
*1468 ANTENNA_output123_A
*1469 ANTENNA_s770_D
*1470 ANTENNA_s788_Q_N
*1471 ANTENNA_s789_Q
*1472 FILLER_0_0_104
*1473 FILLER_0_0_126
*1474 FILLER_0_0_132
*1475 FILLER_0_0_15
*1476 FILLER_0_0_153
*1477 FILLER_0_0_160
*1478 FILLER_0_0_167
*1479 FILLER_0_0_174
*1480 FILLER_0_0_181
*1481 FILLER_0_0_188
*1482 FILLER_0_0_195
*1483 FILLER_0_0_202
*1484 FILLER_0_0_209
*1485 FILLER_0_0_216
*1486 FILLER_0_0_223
*1487 FILLER_0_0_230
*1488 FILLER_0_0_237
*1489 FILLER_0_0_244
*1490 FILLER_0_0_251
*1491 FILLER_0_0_258
*1492 FILLER_0_0_265
*1493 FILLER_0_0_27
*1494 FILLER_0_0_272
*1495 FILLER_0_0_279
*1496 FILLER_0_0_286
*1497 FILLER_0_0_29
*1498 FILLER_0_0_293
*1499 FILLER_0_0_3
*1500 FILLER_0_0_300
*1501 FILLER_0_0_307
*1502 FILLER_0_0_314
*1503 FILLER_0_0_321
*1504 FILLER_0_0_328
*1505 FILLER_0_0_335
*1506 FILLER_0_0_337
*1507 FILLER_0_0_342
*1508 FILLER_0_0_349
*1509 FILLER_0_0_358
*1510 FILLER_0_0_371
*1511 FILLER_0_0_393
*1512 FILLER_0_0_397
*1513 FILLER_0_0_41
*1514 FILLER_0_0_418
*1515 FILLER_0_0_447
*1516 FILLER_0_0_449
*1517 FILLER_0_0_461
*1518 FILLER_0_0_469
*1519 FILLER_0_0_475
*1520 FILLER_0_0_477
*1521 FILLER_0_0_489
*1522 FILLER_0_0_501
*1523 FILLER_0_0_505
*1524 FILLER_0_0_517
*1525 FILLER_0_0_529
*1526 FILLER_0_0_53
*1527 FILLER_0_0_533
*1528 FILLER_0_0_545
*1529 FILLER_0_0_557
*1530 FILLER_0_0_561
*1531 FILLER_0_0_57
*1532 FILLER_0_0_573
*1533 FILLER_0_0_585
*1534 FILLER_0_0_589
*1535 FILLER_0_0_601
*1536 FILLER_0_0_613
*1537 FILLER_0_0_617
*1538 FILLER_0_0_69
*1539 FILLER_0_0_77
*1540 FILLER_0_0_83
*1541 FILLER_0_0_97
*1542 FILLER_0_100_109
*1543 FILLER_0_100_121
*1544 FILLER_0_100_133
*1545 FILLER_0_100_139
*1546 FILLER_0_100_141
*1547 FILLER_0_100_15
*1548 FILLER_0_100_153
*1549 FILLER_0_100_165
*1550 FILLER_0_100_177
*1551 FILLER_0_100_189
*1552 FILLER_0_100_195
*1553 FILLER_0_100_197
*1554 FILLER_0_100_209
*1555 FILLER_0_100_221
*1556 FILLER_0_100_233
*1557 FILLER_0_100_245
*1558 FILLER_0_100_251
*1559 FILLER_0_100_253
*1560 FILLER_0_100_265
*1561 FILLER_0_100_27
*1562 FILLER_0_100_277
*1563 FILLER_0_100_289
*1564 FILLER_0_100_29
*1565 FILLER_0_100_3
*1566 FILLER_0_100_301
*1567 FILLER_0_100_307
*1568 FILLER_0_100_309
*1569 FILLER_0_100_321
*1570 FILLER_0_100_333
*1571 FILLER_0_100_345
*1572 FILLER_0_100_357
*1573 FILLER_0_100_363
*1574 FILLER_0_100_365
*1575 FILLER_0_100_377
*1576 FILLER_0_100_389
*1577 FILLER_0_100_401
*1578 FILLER_0_100_41
*1579 FILLER_0_100_413
*1580 FILLER_0_100_419
*1581 FILLER_0_100_421
*1582 FILLER_0_100_433
*1583 FILLER_0_100_445
*1584 FILLER_0_100_457
*1585 FILLER_0_100_469
*1586 FILLER_0_100_475
*1587 FILLER_0_100_477
*1588 FILLER_0_100_489
*1589 FILLER_0_100_501
*1590 FILLER_0_100_513
*1591 FILLER_0_100_525
*1592 FILLER_0_100_53
*1593 FILLER_0_100_531
*1594 FILLER_0_100_533
*1595 FILLER_0_100_545
*1596 FILLER_0_100_557
*1597 FILLER_0_100_569
*1598 FILLER_0_100_581
*1599 FILLER_0_100_587
*1600 FILLER_0_100_589
*1601 FILLER_0_100_601
*1602 FILLER_0_100_613
*1603 FILLER_0_100_65
*1604 FILLER_0_100_77
*1605 FILLER_0_100_83
*1606 FILLER_0_100_85
*1607 FILLER_0_100_97
*1608 FILLER_0_101_109
*1609 FILLER_0_101_113
*1610 FILLER_0_101_125
*1611 FILLER_0_101_137
*1612 FILLER_0_101_148
*1613 FILLER_0_101_15
*1614 FILLER_0_101_160
*1615 FILLER_0_101_167
*1616 FILLER_0_101_171
*1617 FILLER_0_101_183
*1618 FILLER_0_101_195
*1619 FILLER_0_101_197
*1620 FILLER_0_101_209
*1621 FILLER_0_101_221
*1622 FILLER_0_101_225
*1623 FILLER_0_101_237
*1624 FILLER_0_101_249
*1625 FILLER_0_101_253
*1626 FILLER_0_101_265
*1627 FILLER_0_101_27
*1628 FILLER_0_101_277
*1629 FILLER_0_101_281
*1630 FILLER_0_101_29
*1631 FILLER_0_101_293
*1632 FILLER_0_101_3
*1633 FILLER_0_101_305
*1634 FILLER_0_101_309
*1635 FILLER_0_101_321
*1636 FILLER_0_101_333
*1637 FILLER_0_101_337
*1638 FILLER_0_101_349
*1639 FILLER_0_101_361
*1640 FILLER_0_101_365
*1641 FILLER_0_101_377
*1642 FILLER_0_101_389
*1643 FILLER_0_101_393
*1644 FILLER_0_101_405
*1645 FILLER_0_101_41
*1646 FILLER_0_101_417
*1647 FILLER_0_101_421
*1648 FILLER_0_101_433
*1649 FILLER_0_101_445
*1650 FILLER_0_101_449
*1651 FILLER_0_101_461
*1652 FILLER_0_101_473
*1653 FILLER_0_101_477
*1654 FILLER_0_101_489
*1655 FILLER_0_101_501
*1656 FILLER_0_101_505
*1657 FILLER_0_101_517
*1658 FILLER_0_101_529
*1659 FILLER_0_101_53
*1660 FILLER_0_101_533
*1661 FILLER_0_101_545
*1662 FILLER_0_101_557
*1663 FILLER_0_101_561
*1664 FILLER_0_101_57
*1665 FILLER_0_101_573
*1666 FILLER_0_101_585
*1667 FILLER_0_101_589
*1668 FILLER_0_101_601
*1669 FILLER_0_101_613
*1670 FILLER_0_101_617
*1671 FILLER_0_101_69
*1672 FILLER_0_101_81
*1673 FILLER_0_101_85
*1674 FILLER_0_101_97
*1675 FILLER_0_10_109
*1676 FILLER_0_10_121
*1677 FILLER_0_10_133
*1678 FILLER_0_10_139
*1679 FILLER_0_10_141
*1680 FILLER_0_10_153
*1681 FILLER_0_10_165
*1682 FILLER_0_10_177
*1683 FILLER_0_10_189
*1684 FILLER_0_10_19
*1685 FILLER_0_10_195
*1686 FILLER_0_10_197
*1687 FILLER_0_10_209
*1688 FILLER_0_10_221
*1689 FILLER_0_10_233
*1690 FILLER_0_10_239
*1691 FILLER_0_10_246
*1692 FILLER_0_10_253
*1693 FILLER_0_10_265
*1694 FILLER_0_10_27
*1695 FILLER_0_10_277
*1696 FILLER_0_10_289
*1697 FILLER_0_10_29
*1698 FILLER_0_10_301
*1699 FILLER_0_10_309
*1700 FILLER_0_10_316
*1701 FILLER_0_10_328
*1702 FILLER_0_10_350
*1703 FILLER_0_10_362
*1704 FILLER_0_10_365
*1705 FILLER_0_10_409
*1706 FILLER_0_10_41
*1707 FILLER_0_10_419
*1708 FILLER_0_10_421
*1709 FILLER_0_10_433
*1710 FILLER_0_10_463
*1711 FILLER_0_10_475
*1712 FILLER_0_10_477
*1713 FILLER_0_10_489
*1714 FILLER_0_10_501
*1715 FILLER_0_10_509
*1716 FILLER_0_10_518
*1717 FILLER_0_10_53
*1718 FILLER_0_10_530
*1719 FILLER_0_10_533
*1720 FILLER_0_10_545
*1721 FILLER_0_10_557
*1722 FILLER_0_10_569
*1723 FILLER_0_10_581
*1724 FILLER_0_10_587
*1725 FILLER_0_10_589
*1726 FILLER_0_10_601
*1727 FILLER_0_10_613
*1728 FILLER_0_10_65
*1729 FILLER_0_10_7
*1730 FILLER_0_10_77
*1731 FILLER_0_10_83
*1732 FILLER_0_10_85
*1733 FILLER_0_10_97
*1734 FILLER_0_11_105
*1735 FILLER_0_11_111
*1736 FILLER_0_11_113
*1737 FILLER_0_11_125
*1738 FILLER_0_11_137
*1739 FILLER_0_11_149
*1740 FILLER_0_11_161
*1741 FILLER_0_11_167
*1742 FILLER_0_11_169
*1743 FILLER_0_11_181
*1744 FILLER_0_11_19
*1745 FILLER_0_11_193
*1746 FILLER_0_11_205
*1747 FILLER_0_11_217
*1748 FILLER_0_11_223
*1749 FILLER_0_11_225
*1750 FILLER_0_11_237
*1751 FILLER_0_11_249
*1752 FILLER_0_11_25
*1753 FILLER_0_11_261
*1754 FILLER_0_11_273
*1755 FILLER_0_11_279
*1756 FILLER_0_11_281
*1757 FILLER_0_11_293
*1758 FILLER_0_11_305
*1759 FILLER_0_11_317
*1760 FILLER_0_11_329
*1761 FILLER_0_11_335
*1762 FILLER_0_11_347
*1763 FILLER_0_11_359
*1764 FILLER_0_11_37
*1765 FILLER_0_11_391
*1766 FILLER_0_11_447
*1767 FILLER_0_11_449
*1768 FILLER_0_11_488
*1769 FILLER_0_11_49
*1770 FILLER_0_11_500
*1771 FILLER_0_11_505
*1772 FILLER_0_11_525
*1773 FILLER_0_11_537
*1774 FILLER_0_11_549
*1775 FILLER_0_11_55
*1776 FILLER_0_11_557
*1777 FILLER_0_11_561
*1778 FILLER_0_11_57
*1779 FILLER_0_11_573
*1780 FILLER_0_11_585
*1781 FILLER_0_11_597
*1782 FILLER_0_11_609
*1783 FILLER_0_11_615
*1784 FILLER_0_11_617
*1785 FILLER_0_11_69
*1786 FILLER_0_11_7
*1787 FILLER_0_11_81
*1788 FILLER_0_11_93
*1789 FILLER_0_12_109
*1790 FILLER_0_12_121
*1791 FILLER_0_12_133
*1792 FILLER_0_12_139
*1793 FILLER_0_12_141
*1794 FILLER_0_12_153
*1795 FILLER_0_12_165
*1796 FILLER_0_12_177
*1797 FILLER_0_12_189
*1798 FILLER_0_12_19
*1799 FILLER_0_12_195
*1800 FILLER_0_12_197
*1801 FILLER_0_12_209
*1802 FILLER_0_12_221
*1803 FILLER_0_12_233
*1804 FILLER_0_12_245
*1805 FILLER_0_12_251
*1806 FILLER_0_12_253
*1807 FILLER_0_12_265
*1808 FILLER_0_12_27
*1809 FILLER_0_12_277
*1810 FILLER_0_12_289
*1811 FILLER_0_12_29
*1812 FILLER_0_12_301