*SPEF "ieee 1481-1999"
*DESIGN "netlist_0"
*DATE "13:54:52 Saturday August 17, 2024"
*VENDOR "The OpenROAD Project"
*PROGRAM "OpenROAD"
*VERSION "d423155d69de7f683a23f6916ead418a615ad4ad"
*DESIGN_FLOW "NAME_SCOPE LOCAL" "PIN_CAP NONE"
*DIVIDER /
*DELIMITER :
*BUS_DELIMITER []
*T_UNIT 1 NS
*C_UNIT 1 PF
*R_UNIT 1 OHM
*L_UNIT 1 HENRY

*NAME_MAP
*3 clk
*4 in0
*5 in1
*6 in10
*7 in11
*8 in12
*9 in13
*10 in14
*11 in15
*12 in16
*13 in17
*14 in18
*15 in19
*16 in2
*17 in20
*18 in21
*19 in22
*20 in23
*21 in24
*22 in3
*23 in4
*24 in5
*25 in6
*26 in7
*27 in8
*28 in9
*29 out0
*30 out1
*31 out10
*32 out11
*33 out12
*34 out13
*35 out14
*36 out15
*37 out16
*38 out17
*39 out18
*40 out19
*41 out2
*42 out20
*43 out21
*44 out22
*45 out23
*46 out24
*47 out3
*48 out4
*49 out5
*50 out6
*51 out7
*52 out8
*53 out9
*54 rst
*55 clknet_0_clk
*56 clknet_0_net1009
*57 clknet_0_net1010
*58 clknet_0_net1011
*59 clknet_0_net1030
*60 clknet_0_net1031
*61 clknet_0_net1032
*62 clknet_0_net105
*63 clknet_0_net1050
*64 clknet_0_net1051
*65 clknet_0_net1052
*66 clknet_0_net1070
*67 clknet_0_net1071
*68 clknet_0_net1072
*69 clknet_0_net1091
*70 clknet_0_net1092
*71 clknet_0_net1093
*72 clknet_0_net1109
*73 clknet_0_net1110
*74 clknet_0_net1111
*75 clknet_0_net1128
*76 clknet_0_net1150
*77 clknet_0_net1153
*78 clknet_0_net1154
*79 clknet_0_net1160
*80 clknet_0_net127
*81 clknet_0_net155
*82 clknet_0_net156
*83 clknet_0_net157
*84 clknet_0_net159
*85 clknet_0_net171
*86 clknet_0_net179
*87 clknet_0_net180
*88 clknet_0_net181
*89 clknet_0_net185
*90 clknet_0_net195
*91 clknet_0_net200
*92 clknet_0_net202
*93 clknet_0_net203
*94 clknet_0_net204
*95 clknet_0_net205
*96 clknet_0_net208
*97 clknet_0_net210
*98 clknet_0_net211
*99 clknet_0_net216
*100 clknet_0_net220
*101 clknet_0_net226
*102 clknet_0_net227
*103 clknet_0_net228
*104 clknet_0_net238
*105 clknet_0_net247
*106 clknet_0_net248
*107 clknet_0_net249
*108 clknet_0_net252
*109 clknet_0_net260
*110 clknet_0_net278
*111 clknet_0_net290
*112 clknet_0_net297
*113 clknet_0_net298
*114 clknet_0_net318
*115 clknet_0_net341
*116 clknet_0_net35
*117 clknet_0_net37
*118 clknet_0_net381
*119 clknet_0_net385
*120 clknet_0_net417
*121 clknet_0_net418
*122 clknet_0_net457
*123 clknet_0_net458
*124 clknet_0_net465
*125 clknet_0_net469
*126 clknet_0_net479
*127 clknet_0_net482
*128 clknet_0_net483
*129 clknet_0_net487
*130 clknet_0_net488
*131 clknet_0_net489
*132 clknet_0_net492
*133 clknet_0_net499
*134 clknet_0_net503
*135 clknet_0_net507
*136 clknet_0_net524
*137 clknet_0_net533
*138 clknet_0_net535
*139 clknet_0_net539
*140 clknet_0_net548
*141 clknet_0_net549
*142 clknet_0_net550
*143 clknet_0_net553
*144 clknet_0_net554
*145 clknet_0_net570
*146 clknet_0_net574
*147 clknet_0_net595
*148 clknet_0_net596
*149 clknet_0_net608
*150 clknet_0_net615
*151 clknet_0_net618
*152 clknet_0_net619
*153 clknet_0_net641
*154 clknet_0_net642
*155 clknet_0_net667
*156 clknet_0_net668
*157 clknet_0_net681
*158 clknet_0_net689
*159 clknet_0_net692
*160 clknet_0_net694
*161 clknet_0_net846
*162 clknet_0_net848
*163 clknet_0_net855
*164 clknet_0_net886
*165 clknet_0_net890
*166 clknet_0_net891
*167 clknet_0_net892
*168 clknet_0_net904
*169 clknet_0_net905
*170 clknet_0_net906
*171 clknet_0_net925
*172 clknet_0_net926
*173 clknet_0_net927
*174 clknet_0_net946
*175 clknet_0_net947
*176 clknet_0_net948
*177 clknet_0_net967
*178 clknet_0_net968
*179 clknet_0_net969
*180 clknet_0_net988
*181 clknet_0_net989
*182 clknet_0_net990
*183 clknet_1_0__leaf_net1009
*184 clknet_1_0__leaf_net1010
*185 clknet_1_0__leaf_net1011
*186 clknet_1_0__leaf_net1030
*187 clknet_1_0__leaf_net1031
*188 clknet_1_0__leaf_net1032
*189 clknet_1_0__leaf_net105
*190 clknet_1_0__leaf_net1050
*191 clknet_1_0__leaf_net1051
*192 clknet_1_0__leaf_net1052
*193 clknet_1_0__leaf_net1070
*194 clknet_1_0__leaf_net1071
*195 clknet_1_0__leaf_net1072
*196 clknet_1_0__leaf_net1091
*197 clknet_1_0__leaf_net1092
*198 clknet_1_0__leaf_net1093
*199 clknet_1_0__leaf_net1109
*200 clknet_1_0__leaf_net1110
*201 clknet_1_0__leaf_net1111
*202 clknet_1_0__leaf_net1128
*203 clknet_1_0__leaf_net1150
*204 clknet_1_0__leaf_net1153
*205 clknet_1_0__leaf_net1154
*206 clknet_1_0__leaf_net1160
*207 clknet_1_0__leaf_net127
*208 clknet_1_0__leaf_net155
*209 clknet_1_0__leaf_net156
*210 clknet_1_0__leaf_net157
*211 clknet_1_0__leaf_net159
*212 clknet_1_0__leaf_net171
*213 clknet_1_0__leaf_net179
*214 clknet_1_0__leaf_net180
*215 clknet_1_0__leaf_net181
*216 clknet_1_0__leaf_net185
*217 clknet_1_0__leaf_net195
*218 clknet_1_0__leaf_net200
*219 clknet_1_0__leaf_net202
*220 clknet_1_0__leaf_net203
*221 clknet_1_0__leaf_net204
*222 clknet_1_0__leaf_net205
*223 clknet_1_0__leaf_net208
*224 clknet_1_0__leaf_net210
*225 clknet_1_0__leaf_net211
*226 clknet_1_0__leaf_net216
*227 clknet_1_0__leaf_net220
*228 clknet_1_0__leaf_net226
*229 clknet_1_0__leaf_net227
*230 clknet_1_0__leaf_net228
*231 clknet_1_0__leaf_net238
*232 clknet_1_0__leaf_net247
*233 clknet_1_0__leaf_net248
*234 clknet_1_0__leaf_net249
*235 clknet_1_0__leaf_net252
*236 clknet_1_0__leaf_net260
*237 clknet_1_0__leaf_net278
*238 clknet_1_0__leaf_net290
*239 clknet_1_0__leaf_net297
*240 clknet_1_0__leaf_net298
*241 clknet_1_0__leaf_net318
*242 clknet_1_0__leaf_net341
*243 clknet_1_0__leaf_net35
*244 clknet_1_0__leaf_net37
*245 clknet_1_0__leaf_net381
*246 clknet_1_0__leaf_net385
*247 clknet_1_0__leaf_net417
*248 clknet_1_0__leaf_net418
*249 clknet_1_0__leaf_net457
*250 clknet_1_0__leaf_net458
*251 clknet_1_0__leaf_net465
*252 clknet_1_0__leaf_net469
*253 clknet_1_0__leaf_net479
*254 clknet_1_0__leaf_net482
*255 clknet_1_0__leaf_net483
*256 clknet_1_0__leaf_net487
*257 clknet_1_0__leaf_net488
*258 clknet_1_0__leaf_net489
*259 clknet_1_0__leaf_net492
*260 clknet_1_0__leaf_net499
*261 clknet_1_0__leaf_net503
*262 clknet_1_0__leaf_net507
*263 clknet_1_0__leaf_net524
*264 clknet_1_0__leaf_net533
*265 clknet_1_0__leaf_net535
*266 clknet_1_0__leaf_net539
*267 clknet_1_0__leaf_net548
*268 clknet_1_0__leaf_net549
*269 clknet_1_0__leaf_net550
*270 clknet_1_0__leaf_net553
*271 clknet_1_0__leaf_net554
*272 clknet_1_0__leaf_net570
*273 clknet_1_0__leaf_net574
*274 clknet_1_0__leaf_net595
*275 clknet_1_0__leaf_net596
*276 clknet_1_0__leaf_net608
*277 clknet_1_0__leaf_net615
*278 clknet_1_0__leaf_net618
*279 clknet_1_0__leaf_net619
*280 clknet_1_0__leaf_net641
*281 clknet_1_0__leaf_net642
*282 clknet_1_0__leaf_net667
*283 clknet_1_0__leaf_net668
*284 clknet_1_0__leaf_net681
*285 clknet_1_0__leaf_net689
*286 clknet_1_0__leaf_net692
*287 clknet_1_0__leaf_net694
*288 clknet_1_0__leaf_net846
*289 clknet_1_0__leaf_net848
*290 clknet_1_0__leaf_net855
*291 clknet_1_0__leaf_net886
*292 clknet_1_0__leaf_net890
*293 clknet_1_0__leaf_net891
*294 clknet_1_0__leaf_net892
*295 clknet_1_0__leaf_net904
*296 clknet_1_0__leaf_net905
*297 clknet_1_0__leaf_net906
*298 clknet_1_0__leaf_net925
*299 clknet_1_0__leaf_net926
*300 clknet_1_0__leaf_net927
*301 clknet_1_0__leaf_net946
*302 clknet_1_0__leaf_net947
*303 clknet_1_0__leaf_net948
*304 clknet_1_0__leaf_net967
*305 clknet_1_0__leaf_net968
*306 clknet_1_0__leaf_net969
*307 clknet_1_0__leaf_net988
*308 clknet_1_0__leaf_net989
*309 clknet_1_0__leaf_net990
*310 clknet_1_1__leaf_net1009
*311 clknet_1_1__leaf_net1010
*312 clknet_1_1__leaf_net1011
*313 clknet_1_1__leaf_net1030
*314 clknet_1_1__leaf_net1031
*315 clknet_1_1__leaf_net1032
*316 clknet_1_1__leaf_net105
*317 clknet_1_1__leaf_net1050
*318 clknet_1_1__leaf_net1051
*319 clknet_1_1__leaf_net1052
*320 clknet_1_1__leaf_net1070
*321 clknet_1_1__leaf_net1071
*322 clknet_1_1__leaf_net1072
*323 clknet_1_1__leaf_net1091
*324 clknet_1_1__leaf_net1092
*325 clknet_1_1__leaf_net1093
*326 clknet_1_1__leaf_net1109
*327 clknet_1_1__leaf_net1110
*328 clknet_1_1__leaf_net1111
*329 clknet_1_1__leaf_net1128
*330 clknet_1_1__leaf_net1150
*331 clknet_1_1__leaf_net1153
*332 clknet_1_1__leaf_net1154
*333 clknet_1_1__leaf_net1160
*334 clknet_1_1__leaf_net127
*335 clknet_1_1__leaf_net155
*336 clknet_1_1__leaf_net156
*337 clknet_1_1__leaf_net157
*338 clknet_1_1__leaf_net159
*339 clknet_1_1__leaf_net171
*340 clknet_1_1__leaf_net179
*341 clknet_1_1__leaf_net180
*342 clknet_1_1__leaf_net181
*343 clknet_1_1__leaf_net185
*344 clknet_1_1__leaf_net195
*345 clknet_1_1__leaf_net200
*346 clknet_1_1__leaf_net202
*347 clknet_1_1__leaf_net203
*348 clknet_1_1__leaf_net204
*349 clknet_1_1__leaf_net205
*350 clknet_1_1__leaf_net208
*351 clknet_1_1__leaf_net210
*352 clknet_1_1__leaf_net211
*353 clknet_1_1__leaf_net216
*354 clknet_1_1__leaf_net220
*355 clknet_1_1__leaf_net226
*356 clknet_1_1__leaf_net227
*357 clknet_1_1__leaf_net228
*358 clknet_1_1__leaf_net238
*359 clknet_1_1__leaf_net247
*360 clknet_1_1__leaf_net248
*361 clknet_1_1__leaf_net249
*362 clknet_1_1__leaf_net252
*363 clknet_1_1__leaf_net260
*364 clknet_1_1__leaf_net278
*365 clknet_1_1__leaf_net290
*366 clknet_1_1__leaf_net297
*367 clknet_1_1__leaf_net298
*368 clknet_1_1__leaf_net318
*369 clknet_1_1__leaf_net341
*370 clknet_1_1__leaf_net35
*371 clknet_1_1__leaf_net37
*372 clknet_1_1__leaf_net381
*373 clknet_1_1__leaf_net385
*374 clknet_1_1__leaf_net417
*375 clknet_1_1__leaf_net418
*376 clknet_1_1__leaf_net457
*377 clknet_1_1__leaf_net458
*378 clknet_1_1__leaf_net465
*379 clknet_1_1__leaf_net469
*380 clknet_1_1__leaf_net479
*381 clknet_1_1__leaf_net482
*382 clknet_1_1__leaf_net483
*383 clknet_1_1__leaf_net487
*384 clknet_1_1__leaf_net488
*385 clknet_1_1__leaf_net489
*386 clknet_1_1__leaf_net492
*387 clknet_1_1__leaf_net499
*388 clknet_1_1__leaf_net503
*389 clknet_1_1__leaf_net507
*390 clknet_1_1__leaf_net524
*391 clknet_1_1__leaf_net533
*392 clknet_1_1__leaf_net535
*393 clknet_1_1__leaf_net539
*394 clknet_1_1__leaf_net548
*395 clknet_1_1__leaf_net549
*396 clknet_1_1__leaf_net550
*397 clknet_1_1__leaf_net553
*398 clknet_1_1__leaf_net554
*399 clknet_1_1__leaf_net570
*400 clknet_1_1__leaf_net574
*401 clknet_1_1__leaf_net595
*402 clknet_1_1__leaf_net596
*403 clknet_1_1__leaf_net608
*404 clknet_1_1__leaf_net615
*405 clknet_1_1__leaf_net618
*406 clknet_1_1__leaf_net619
*407 clknet_1_1__leaf_net641
*408 clknet_1_1__leaf_net642
*409 clknet_1_1__leaf_net667
*410 clknet_1_1__leaf_net668
*411 clknet_1_1__leaf_net681
*412 clknet_1_1__leaf_net689
*413 clknet_1_1__leaf_net692
*414 clknet_1_1__leaf_net694
*415 clknet_1_1__leaf_net846
*416 clknet_1_1__leaf_net848
*417 clknet_1_1__leaf_net855
*418 clknet_1_1__leaf_net886
*419 clknet_1_1__leaf_net890
*420 clknet_1_1__leaf_net891
*421 clknet_1_1__leaf_net892
*422 clknet_1_1__leaf_net904
*423 clknet_1_1__leaf_net905
*424 clknet_1_1__leaf_net906
*425 clknet_1_1__leaf_net925
*426 clknet_1_1__leaf_net926
*427 clknet_1_1__leaf_net927
*428 clknet_1_1__leaf_net946
*429 clknet_1_1__leaf_net947
*430 clknet_1_1__leaf_net948
*431 clknet_1_1__leaf_net967
*432 clknet_1_1__leaf_net968
*433 clknet_1_1__leaf_net969
*434 clknet_1_1__leaf_net988
*435 clknet_1_1__leaf_net989
*436 clknet_1_1__leaf_net990
*437 clknet_2_0__leaf_clk
*438 clknet_2_1__leaf_clk
*439 clknet_2_2__leaf_clk
*440 clknet_2_3__leaf_clk
*441 clknet_leaf_0_clk
*442 clknet_leaf_10_clk
*443 clknet_leaf_11_clk
*444 clknet_leaf_12_clk
*445 clknet_leaf_13_clk
*446 clknet_leaf_14_clk
*447 clknet_leaf_15_clk
*448 clknet_leaf_16_clk
*449 clknet_leaf_17_clk
*450 clknet_leaf_18_clk
*451 clknet_leaf_19_clk
*452 clknet_leaf_1_clk
*453 clknet_leaf_20_clk
*454 clknet_leaf_21_clk
*455 clknet_leaf_22_clk
*456 clknet_leaf_23_clk
*457 clknet_leaf_24_clk
*458 clknet_leaf_25_clk
*459 clknet_leaf_26_clk
*460 clknet_leaf_27_clk
*461 clknet_leaf_28_clk
*462 clknet_leaf_29_clk
*463 clknet_leaf_2_clk
*464 clknet_leaf_30_clk
*465 clknet_leaf_31_clk
*466 clknet_leaf_32_clk
*467 clknet_leaf_33_clk
*468 clknet_leaf_34_clk
*469 clknet_leaf_35_clk
*470 clknet_leaf_36_clk
*471 clknet_leaf_37_clk
*472 clknet_leaf_38_clk
*473 clknet_leaf_39_clk
*474 clknet_leaf_3_clk
*475 clknet_leaf_40_clk
*476 clknet_leaf_41_clk
*477 clknet_leaf_42_clk
*478 clknet_leaf_43_clk
*479 clknet_leaf_44_clk
*480 clknet_leaf_45_clk
*481 clknet_leaf_46_clk
*482 clknet_leaf_47_clk
*483 clknet_leaf_48_clk
*484 clknet_leaf_4_clk
*485 clknet_leaf_5_clk
*486 clknet_leaf_6_clk
*487 clknet_leaf_7_clk
*488 clknet_leaf_8_clk
*489 clknet_leaf_9_clk
*490 net0
*491 net1
*492 net10
*493 net100
*494 net1000
*495 net1001
*496 net1002
*497 net1003
*498 net1004
*499 net1005
*500 net1006
*501 net1007
*502 net1008
*503 net1009
*504 net101
*505 net1010
*506 net1011
*507 net1012
*508 net1013
*509 net1014
*510 net1015
*511 net1016
*512 net1017
*513 net1018
*514 net1019
*515 net102
*516 net1020
*517 net1021
*518 net1022
*519 net1023
*520 net1024
*521 net1025
*522 net1026
*523 net1027
*524 net1028
*525 net1029
*526 net103
*527 net1030
*528 net1031
*529 net1032
*530 net1033
*531 net1034
*532 net1035
*533 net1036
*534 net1037
*535 net1038
*536 net1039
*537 net104
*538 net1040
*539 net1041
*540 net1042
*541 net1043
*542 net1044
*543 net1045
*544 net1046
*545 net1047
*546 net1048
*547 net1049
*548 net105
*549 net1050
*550 net1051
*551 net1052
*552 net1053
*553 net1054
*554 net1055
*555 net1056
*556 net1057
*557 net1058
*558 net1059
*559 net106
*560 net1060
*561 net1061
*562 net1062
*563 net1063
*564 net1064
*565 net1065
*566 net1066
*567 net1067
*568 net1068
*569 net1069
*570 net107
*571 net1070
*572 net1071
*573 net1072
*574 net1073
*575 net1074
*576 net1075
*577 net1076
*578 net1077
*579 net1078
*580 net1079
*581 net108
*582 net1080
*583 net1081
*584 net1082
*585 net1083
*586 net1084
*587 net1085
*588 net1086
*589 net1087
*590 net1088
*591 net1089
*592 net109
*593 net1090
*594 net1091
*595 net1092
*596 net1093
*597 net1094
*598 net1095
*599 net1096
*600 net1097
*601 net1098
*602 net1099
*603 net11
*604 net110
*605 net1100
*606 net1101
*607 net1102
*608 net1103
*609 net1104
*610 net1105
*611 net1106
*612 net1107
*613 net1108
*614 net1109
*615 net111
*616 net1110
*617 net1111
*618 net1112
*619 net1113
*620 net1114
*621 net1115
*622 net1116
*623 net1117
*624 net1118
*625 net1119
*626 net112
*627 net1120
*628 net1121
*629 net1122
*630 net1123
*631 net1124
*632 net1125
*633 net1126
*634 net1127
*635 net1128
*636 net1129
*637 net113
*638 net1130
*639 net1131
*640 net1132
*641 net1133
*642 net1134
*643 net1135
*644 net1136
*645 net1137
*646 net1138
*647 net1139
*648 net114
*649 net1140
*650 net1141
*651 net1142
*652 net1143
*653 net1144
*654 net1145
*655 net1146
*656 net1147
*657 net1148
*658 net1149
*659 net115
*660 net1150
*661 net1151
*662 net1152
*663 net1153
*664 net1154
*665 net1155
*666 net1156
*667 net1157
*668 net1158
*669 net1159
*670 net116
*671 net1160
*672 net1161
*673 net1162
*674 net1163
*675 net1164
*676 net1165
*677 net1166
*678 net1167
*679 net1168
*680 net1169
*681 net117
*682 net1170
*683 net1171
*684 net1172
*685 net1173
*686 net1174
*687 net1175
*688 net1176
*689 net1177
*690 net1178
*691 net1179
*692 net118
*693 net1180
*694 net1181
*695 net1182
*696 net1183
*697 net1184
*698 net1185
*699 net1186
*700 net1187
*701 net1188
*702 net1189
*703 net119
*704 net1190
*705 net1191
*706 net1192
*707 net1193
*708 net1194
*709 net1195
*710 net1196
*711 net1197
*712 net1198
*713 net1199
*714 net12
*715 net120
*716 net1200
*717 net1201
*718 net1202
*719 net1203
*720 net1204
*721 net1205
*722 net1206
*723 net1207
*724 net1208
*725 net1209
*726 net121
*727 net1210
*728 net1211
*729 net1212
*730 net1213
*731 net1214
*732 net1215
*733 net1216
*734 net1217
*735 net1218
*736 net1219
*737 net122
*738 net1220
*739 net1221
*740 net1222
*741 net1223
*742 net1224
*743 net1225
*744 net1226
*745 net1227
*746 net1228
*747 net1229
*748 net123
*749 net1230
*750 net1231
*751 net1232
*752 net1233
*753 net1234
*754 net1235
*755 net1236
*756 net1237
*757 net1238
*758 net1239
*759 net124
*760 net1240
*761 net1241
*762 net1242
*763 net1243
*764 net1244
*765 net1245
*766 net1246
*767 net1247
*768 net1248
*769 net1249
*770 net125
*771 net1250
*772 net1251
*773 net1252
*774 net1253
*775 net1254
*776 net1255
*777 net1256
*778 net1257
*779 net1258
*780 net1259
*781 net126
*782 net1260
*783 net1261
*784 net1262
*785 net1263
*786 net1264
*787 net1265
*788 net1266
*789 net1267
*790 net1268
*791 net1269
*792 net127
*793 net1270
*794 net1271
*795 net1272
*796 net1273
*797 net1274
*798 net1275
*799 net1276
*800 net1277
*801 net1278
*802 net1279
*803 net128
*804 net1280
*805 net1281
*806 net1282
*807 net1283
*808 net1284
*809 net1285
*810 net129
*811 net13
*812 net130
*813 net131
*814 net132
*815 net133
*816 net134
*817 net135
*818 net136
*819 net137
*820 net138
*821 net139
*822 net14
*823 net140
*824 net141
*825 net142
*826 net143
*827 net144
*828 net145
*829 net146
*830 net147
*831 net148
*832 net149
*833 net15
*834 net150
*835 net151
*836 net152
*837 net153
*838 net154
*839 net155
*840 net156
*841 net157
*842 net158
*843 net159
*844 net16
*845 net160
*846 net161
*847 net162
*848 net163
*849 net164
*850 net165
*851 net166
*852 net167
*853 net168
*854 net169
*855 net17
*856 net170
*857 net171
*858 net172
*859 net173
*860 net174
*861 net175
*862 net176
*863 net177
*864 net178
*865 net179
*866 net18
*867 net180
*868 net181
*869 net182
*870 net183
*871 net184
*872 net185
*873 net186
*874 net187
*875 net188
*876 net189
*877 net19
*878 net190
*879 net191
*880 net192
*881 net193
*882 net194
*883 net195
*884 net196
*885 net197
*886 net198
*887 net199
*888 net2
*889 net20
*890 net200
*891 net201
*892 net202
*893 net203
*894 net204
*895 net205
*896 net206
*897 net207
*898 net208
*899 net209
*900 net21
*901 net210
*902 net211
*903 net212
*904 net213
*905 net214
*906 net215
*907 net216
*908 net217
*909 net218
*910 net219
*911 net22
*912 net220
*913 net221
*914 net222
*915 net223
*916 net224
*917 net225
*918 net226
*919 net227
*920 net228
*921 net229
*922 net23
*923 net230
*924 net231
*925 net232
*926 net233
*927 net234
*928 net235
*929 net236
*930 net237
*931 net238
*932 net239
*933 net24
*934 net240
*935 net241
*936 net242
*937 net243
*938 net244
*939 net245
*940 net246
*941 net247
*942 net248
*943 net249
*944 net25
*945 net250
*946 net251
*947 net252
*948 net253
*949 net254
*950 net255
*951 net256
*952 net257
*953 net258
*954 net259
*955 net26
*956 net260
*957 net261
*958 net262
*959 net263
*960 net264
*961 net265
*962 net266
*963 net267
*964 net268
*965 net269
*966 net27
*967 net270
*968 net271
*969 net272
*970 net273
*971 net274
*972 net275
*973 net276
*974 net277
*975 net278
*976 net279
*977 net28
*978 net280
*979 net281
*980 net282
*981 net283
*982 net284
*983 net285
*984 net286
*985 net287
*986 net288
*987 net289
*988 net29
*989 net290
*990 net291
*991 net292
*992 net293
*993 net294
*994 net295
*995 net296
*996 net297
*997 net298
*998 net299
*999 net3
*1000 net30
*1001 net300
*1002 net301
*1003 net302
*1004 net303
*1005 net304
*1006 net305
*1007 net306
*1008 net307
*1009 net308
*1010 net309
*1011 net31
*1012 net310
*1013 net311
*1014 net312
*1015 net313
*1016 net314
*1017 net315
*1018 net316
*1019 net317
*1020 net318
*1021 net319
*1022 net32
*1023 net320
*1024 net321
*1025 net322
*1026 net323
*1027 net324
*1028 net325
*1029 net326
*1030 net327
*1031 net328
*1032 net329
*1033 net33
*1034 net330
*1035 net331
*1036 net332
*1037 net333
*1038 net334
*1039 net335
*1040 net336
*1041 net337
*1042 net338
*1043 net339
*1044 net34
*1045 net340
*1046 net341
*1047 net342
*1048 net343
*1049 net344
*1050 net345
*1051 net346
*1052 net347
*1053 net348
*1054 net349
*1055 net35
*1056 net350
*1057 net351
*1058 net352
*1059 net353
*1060 net354
*1061 net355
*1062 net356
*1063 net357
*1064 net358
*1065 net359
*1066 net36
*1067 net360
*1068 net361
*1069 net362
*1070 net363
*1071 net364
*1072 net365
*1073 net366
*1074 net367
*1075 net368
*1076 net369
*1077 net37
*1078 net370
*1079 net371
*1080 net372
*1081 net373
*1082 net374
*1083 net375
*1084 net376
*1085 net377
*1086 net378
*1087 net379
*1088 net38
*1089 net380
*1090 net381
*1091 net382
*1092 net383
*1093 net384
*1094 net385
*1095 net386
*1096 net387
*1097 net388
*1098 net389
*1099 net39
*1100 net390
*1101 net391
*1102 net392
*1103 net393
*1104 net394
*1105 net395
*1106 net396
*1107 net397
*1108 net398
*1109 net399
*1110 net4
*1111 net40
*1112 net400
*1113 net401
*1114 net402
*1115 net403
*1116 net404
*1117 net405
*1118 net406
*1119 net407
*1120 net408
*1121 net409
*1122 net41
*1123 net410
*1124 net411
*1125 net412
*1126 net413
*1127 net414
*1128 net415
*1129 net416
*1130 net417
*1131 net418
*1132 net419
*1133 net42
*1134 net420
*1135 net421
*1136 net422
*1137 net423
*1138 net424
*1139 net425
*1140 net426
*1141 net427
*1142 net428
*1143 net429
*1144 net43
*1145 net430
*1146 net431
*1147 net432
*1148 net433
*1149 net434
*1150 net435
*1151 net436
*1152 net437
*1153 net438
*1154 net439
*1155 net44
*1156 net440
*1157 net441
*1158 net442
*1159 net443
*1160 net444
*1161 net445
*1162 net446
*1163 net447
*1164 net448
*1165 net449
*1166 net45
*1167 net450
*1168 net451
*1169 net452
*1170 net453
*1171 net454
*1172 net455
*1173 net456
*1174 net457
*1175 net458
*1176 net459
*1177 net46
*1178 net460
*1179 net461
*1180 net462
*1181 net463
*1182 net464
*1183 net465
*1184 net466
*1185 net467
*1186 net468
*1187 net469
*1188 net47
*1189 net470
*1190 net471
*1191 net472
*1192 net473
*1193 net474
*1194 net475
*1195 net476
*1196 net477
*1197 net478
*1198 net479
*1199 net48
*1200 net480
*1201 net481
*1202 net482
*1203 net483
*1204 net484
*1205 net485
*1206 net486
*1207 net487
*1208 net488
*1209 net489
*1210 net49
*1211 net490
*1212 net491
*1213 net492
*1214 net493
*1215 net494
*1216 net495
*1217 net496
*1218 net497
*1219 net498
*1220 net499
*1221 net5
*1222 net50
*1223 net500
*1224 net501
*1225 net502
*1226 net503
*1227 net504
*1228 net505
*1229 net506
*1230 net507
*1231 net508
*1232 net509
*1233 net51
*1234 net510
*1235 net511
*1236 net512
*1237 net513
*1238 net514
*1239 net515
*1240 net516
*1241 net517
*1242 net518
*1243 net519
*1244 net52
*1245 net520
*1246 net521
*1247 net522
*1248 net523
*1249 net524
*1250 net525
*1251 net526
*1252 net527
*1253 net528
*1254 net529
*1255 net53
*1256 net530
*1257 net531
*1258 net532
*1259 net533
*1260 net534
*1261 net535
*1262 net536
*1263 net537
*1264 net538
*1265 net539
*1266 net54
*1267 net540
*1268 net541
*1269 net542
*1270 net543
*1271 net544
*1272 net545
*1273 net546
*1274 net547
*1275 net548
*1276 net549
*1277 net55
*1278 net550
*1279 net551
*1280 net552
*1281 net553
*1282 net554
*1283 net555
*1284 net556
*1285 net557
*1286 net558
*1287 net559
*1288 net56
*1289 net560
*1290 net561
*1291 net562
*1292 net563
*1293 net564
*1294 net565
*1295 net566
*1296 net567
*1297 net568
*1298 net569
*1299 net57
*1300 net570
*1301 net571
*1302 net572
*1303 net573
*1304 net574
*1305 net575
*1306 net576
*1307 net577
*1308 net578
*1309 net579
*1310 net58
*1311 net580
*1312 net581
*1313 net582
*1314 net583
*1315 net584
*1316 net585
*1317 net586
*1318 net587
*1319 net588
*1320 net589
*1321 net59
*1322 net590
*1323 net591
*1324 net592
*1325 net593
*1326 net594
*1327 net595
*1328 net596
*1329 net597
*1330 net598
*1331 net599
*1332 net6
*1333 net60
*1334 net600
*1335 net601
*1336 net602
*1337 net603
*1338 net604
*1339 net605
*1340 net606
*1341 net607
*1342 net608
*1343 net609
*1344 net61
*1345 net610
*1346 net611
*1347 net612
*1348 net613
*1349 net614
*1350 net615
*1351 net616
*1352 net617
*1353 net618
*1354 net619
*1355 net62
*1356 net620
*1357 net621
*1358 net622
*1359 net623
*1360 net624
*1361 net625
*1362 net626
*1363 net627
*1364 net628
*1365 net629
*1366 net63
*1367 net630
*1368 net631
*1369 net632
*1370 net633
*1371 net634
*1372 net635
*1373 net636
*1374 net637
*1375 net638
*1376 net639
*1377 net64
*1378 net640
*1379 net641
*1380 net642
*1381 net643
*1382 net644
*1383 net645
*1384 net646
*1385 net647
*1386 net648
*1387 net649
*1388 net65
*1389 net650
*1390 net651
*1391 net652
*1392 net653
*1393 net654
*1394 net655
*1395 net656
*1396 net657
*1397 net658
*1398 net659
*1399 net66
*1400 net660
*1401 net661
*1402 net662
*1403 net663
*1404 net664
*1405 net665
*1406 net666
*1407 net667
*1408 net668
*1409 net669
*1410 net67
*1411 net670
*1412 net671
*1413 net672
*1414 net673
*1415 net674
*1416 net675
*1417 net676
*1418 net677
*1419 net678
*1420 net679
*1421 net68
*1422 net680
*1423 net681
*1424 net682
*1425 net683
*1426 net684
*1427 net685
*1428 net686
*1429 net687
*1430 net688
*1431 net689
*1432 net69
*1433 net690
*1434 net691
*1435 net692
*1436 net693
*1437 net694
*1438 net695
*1439 net696
*1440 net697
*1441 net698
*1442 net699
*1443 net7
*1444 net70
*1445 net700
*1446 net701
*1447 net702
*1448 net703
*1449 net704
*1450 net705
*1451 net706
*1452 net707
*1453 net708
*1454 net709
*1455 net71
*1456 net710
*1457 net711
*1458 net712
*1459 net713
*1460 net714
*1461 net715
*1462 net716
*1463 net717
*1464 net718
*1465 net719
*1466 net72
*1467 net720
*1468 net721
*1469 net722
*1470 net723
*1471 net724
*1472 net725
*1473 net726
*1474 net727
*1475 net728
*1476 net729
*1477 net73
*1478 net730
*1479 net731
*1480 net732
*1481 net733
*1482 net734
*1483 net735
*1484 net736
*1485 net737
*1486 net738
*1487 net739
*1488 net74
*1489 net740
*1490 net741
*1491 net742
*1492 net743
*1493 net744
*1494 net745
*1495 net746
*1496 net747
*1497 net748
*1498 net749
*1499 net75
*1500 net750
*1501 net751
*1502 net752
*1503 net753
*1504 net754
*1505 net755
*1506 net756
*1507 net757
*1508 net758
*1509 net759
*1510 net76
*1511 net760
*1512 net761
*1513 net762
*1514 net763
*1515 net764
*1516 net765
*1517 net766
*1518 net767
*1519 net768
*1520 net769
*1521 net77
*1522 net770
*1523 net771
*1524 net772
*1525 net773
*1526 net774
*1527 net775
*1528 net776
*1529 net777
*1530 net778
*1531 net779
*1532 net78
*1533 net780
*1534 net781
*1535 net782
*1536 net783
*1537 net784
*1538 net785
*1539 net786
*1540 net787
*1541 net788
*1542 net789
*1543 net79
*1544 net790
*1545 net791
*1546 net792
*1547 net793
*1548 net794
*1549 net795
*1550 net796
*1551 net797
*1552 net798
*1553 net799
*1554 net8
*1555 net80
*1556 net800
*1557 net801
*1558 net802
*1559 net803
*1560 net804
*1561 net805
*1562 net806
*1563 net807
*1564 net808
*1565 net809
*1566 net81
*1567 net810
*1568 net811
*1569 net812
*1570 net813
*1571 net814
*1572 net815
*1573 net816
*1574 net817
*1575 net818
*1576 net819
*1577 net82
*1578 net820
*1579 net821
*1580 net822
*1581 net823
*1582 net824
*1583 net825
*1584 net826
*1585 net827
*1586 net828
*1587 net829
*1588 net83
*1589 net830
*1590 net831
*1591 net832
*1592 net833
*1593 net834
*1594 net835
*1595 net836
*1596 net837
*1597 net838
*1598 net839
*1599 net84
*1600 net840
*1601 net841
*1602 net842
*1603 net843
*1604 net844
*1605 net845
*1606 net846
*1607 net847
*1608 net848
*1609 net849
*1610 net85
*1611 net850
*1612 net851
*1613 net852
*1614 net853
*1615 net854
*1616 net855
*1617 net856
*1618 net857
*1619 net858
*1620 net859
*1621 net86
*1622 net860
*1623 net861
*1624 net862
*1625 net863
*1626 net864
*1627 net865
*1628 net866
*1629 net867
*1630 net868
*1631 net869
*1632 net87
*1633 net870
*1634 net871
*1635 net872
*1636 net873
*1637 net874
*1638 net875
*1639 net876
*1640 net877
*1641 net878
*1642 net879
*1643 net88
*1644 net880
*1645 net881
*1646 net882
*1647 net883
*1648 net884
*1649 net885
*1650 net886
*1651 net887
*1652 net888
*1653 net889
*1654 net89
*1655 net890
*1656 net891
*1657 net892
*1658 net893
*1659 net894
*1660 net895
*1661 net896
*1662 net897
*1663 net898
*1664 net899
*1665 net9
*1666 net90
*1667 net900
*1668 net901
*1669 net902
*1670 net903
*1671 net904
*1672 net905
*1673 net906
*1674 net907
*1675 net908
*1676 net909
*1677 net91
*1678 net910
*1679 net911
*1680 net912
*1681 net913
*1682 net914
*1683 net915
*1684 net916
*1685 net917
*1686 net918
*1687 net919
*1688 net92
*1689 net920
*1690 net921
*1691 net922
*1692 net923
*1693 net924
*1694 net925
*1695 net926
*1696 net927
*1697 net928
*1698 net929
*1699 net93
*1700 net930
*1701 net931
*1702 net932
*1703 net933
*1704 net934
*1705 net935
*1706 net936
*1707 net937
*1708 net938
*1709 net939
*1710 net94
*1711 net940
*1712 net941
*1713 net942
*1714 net943
*1715 net944
*1716 net945
*1717 net946
*1718 net947
*1719 net948
*1720 net949
*1721 net95
*1722 net950
*1723 net951
*1724 net952
*1725 net953
*1726 net954
*1727 net955
*1728 net956
*1729 net957
*1730 net958
*1731 net959
*1732 net96
*1733 net960
*1734 net961
*1735 net962
*1736 net963
*1737 net964
*1738 net965
*1739 net966
*1740 net967
*1741 net968
*1742 net969
*1743 net97
*1744 net970
*1745 net971
*1746 net972
*1747 net973
*1748 net974
*1749 net975
*1750 net976
*1751 net977
*1752 net978
*1753 net979
*1754 net98
*1755 net980
*1756 net981
*1757 net982
*1758 net983
*1759 net984
*1760 net985
*1761 net986
*1762 net987
*1763 net988
*1764 net989
*1765 net99
*1766 net990
*1767 net991
*1768 net992
*1769 net993
*1770 net994
*1771 net995
*1772 net996
*1773 net997
*1774 net998
*1775 net999
*1776 ANTENNA_c100_A2
*1777 ANTENNA_c112_A1
*1778 ANTENNA_c146_S1
*1779 ANTENNA_c147_A
*1780 ANTENNA_c157_S1
*1781 ANTENNA_c169_B
*1782 ANTENNA_c170_A
*1783 ANTENNA_c172_C
*1784 ANTENNA_c173_SCD
*1785 ANTENNA_c174_S0
*1786 ANTENNA_c176_D
*1787 ANTENNA_c177_S1
*1788 ANTENNA_c181_A1
*1789 ANTENNA_c189_A
*1790 ANTENNA_c210_A
*1791 ANTENNA_c210_X
*1792 ANTENNA_c211_A
*1793 ANTENNA_c214_A1
*1794 ANTENNA_c215_X
*1795 ANTENNA_c217_A
*1796 ANTENNA_c220_D1
*1797 ANTENNA_c225_S0
*1798 ANTENNA_c228_A3
*1799 ANTENNA_c251_A2
*1800 ANTENNA_c261_S1
*1801 ANTENNA_c265_S1
*1802 ANTENNA_c266_S0
*1803 ANTENNA_c267_S0
*1804 ANTENNA_c273_B
*1805 ANTENNA_c276_A
*1806 ANTENNA_c279_C
*1807 ANTENNA_c280_A2
*1808 ANTENNA_c280_D1
*1809 ANTENNA_c282_Q
*1810 ANTENNA_c282_RESET_B
*1811 ANTENNA_c284_A1
*1812 ANTENNA_c284_A2
*1813 ANTENNA_c284_S0
*1814 ANTENNA_c284_S1
*1815 ANTENNA_c285_RESET_B
*1816 ANTENNA_c285_SCD
*1817 ANTENNA_c285_SCE
*1818 ANTENNA_c285_SET_B
*1819 ANTENNA_c287_A0
*1820 ANTENNA_c287_S0
*1821 ANTENNA_c287_S1
*1822 ANTENNA_c288_A0
*1823 ANTENNA_c288_A1
*1824 ANTENNA_c288_A3
*1825 ANTENNA_c288_S0
*1826 ANTENNA_c289_A0
*1827 ANTENNA_c289_A3
*1828 ANTENNA_c289_S0
*1829 ANTENNA_c289_S1
*1830 ANTENNA_c290_A1
*1831 ANTENNA_c290_A3
*1832 ANTENNA_c290_S0
*1833 ANTENNA_c291_A3
*1834 ANTENNA_c292_A2
*1835 ANTENNA_c292_A3
*1836 ANTENNA_c292_S0
*1837 ANTENNA_c294_A
*1838 ANTENNA_c294_B
*1839 ANTENNA_c298_C
*1840 ANTENNA_c305_Q
*1841 ANTENNA_c305_Q_N