*SPEF "ieee 1481-1999"
*DESIGN "netlist_1"
*DATE "21:03:40 Wednesday August 14, 2024"
*VENDOR "The OpenROAD Project"
*PROGRAM "OpenROAD"
*VERSION "d423155d69de7f683a23f6916ead418a615ad4ad"
*DESIGN_FLOW "NAME_SCOPE LOCAL" "PIN_CAP NONE"
*DIVIDER /
*DELIMITER :
*BUS_DELIMITER []
*T_UNIT 1 NS
*C_UNIT 1 PF
*R_UNIT 1 OHM
*L_UNIT 1 HENRY

*NAME_MAP
*3 clk
*4 in0
*5 in1
*6 in10
*7 in11
*8 in12
*9 in13
*10 in14
*11 in15
*12 in16
*13 in17
*14 in18
*15 in19
*16 in2
*17 in20
*18 in21
*19 in22
*20 in23
*21 in24
*22 in25
*23 in26
*24 in27
*25 in28
*26 in29
*27 in3
*28 in30
*29 in31
*30 in32
*31 in33
*32 in34
*33 in35
*34 in36
*35 in37
*36 in38
*37 in39
*38 in4
*39 in40
*40 in41
*41 in42
*42 in43
*43 in44
*44 in45
*45 in46
*46 in47
*47 in48
*48 in49
*49 in5
*50 in50
*51 in51
*52 in52
*53 in53
*54 in54
*55 in55
*56 in56
*57 in57
*58 in58
*59 in59
*60 in6
*61 in60
*62 in61
*63 in62
*64 in63
*65 in64
*66 in65
*67 in66
*68 in67
*69 in68
*70 in69
*71 in7
*72 in70
*73 in71
*74 in72
*75 in73
*76 in74
*77 in75
*78 in76
*79 in77
*80 in78
*81 in79
*82 in8
*83 in80
*84 in81
*85 in82
*86 in83
*87 in84
*88 in85
*89 in86
*90 in87
*91 in88
*92 in89
*93 in9
*94 in90
*95 in91
*96 in92
*97 in93
*98 in94
*99 in95
*100 in96
*101 in97
*102 in98
*103 in99
*104 out0
*105 out1
*106 out10
*107 out11
*108 out12
*109 out13
*110 out14
*111 out15
*112 out16
*113 out17
*114 out18
*115 out19
*116 out2
*117 out20
*118 out21
*119 out22
*120 out23
*121 out24
*122 out25
*123 out26
*124 out27
*125 out28
*126 out29
*127 out3
*128 out30
*129 out31
*130 out32
*131 out33
*132 out34
*133 out35
*134 out36
*135 out37
*136 out38
*137 out39
*138 out4
*139 out40
*140 out41
*141 out42
*142 out43
*143 out44
*144 out45
*145 out46
*146 out47
*147 out48
*148 out49
*149 out5
*150 out50
*151 out51
*152 out52
*153 out53
*154 out54
*155 out55
*156 out56
*157 out57
*158 out58
*159 out59
*160 out6
*161 out60
*162 out61
*163 out62
*164 out63
*165 out64
*166 out65
*167 out66
*168 out67
*169 out68
*170 out69
*171 out7
*172 out70
*173 out71
*174 out72
*175 out73
*176 out74
*177 out75
*178 out76
*179 out77
*180 out78
*181 out79
*182 out8
*183 out80
*184 out81
*185 out82
*186 out83
*187 out84
*188 out85
*189 out86
*190 out87
*191 out88
*192 out89
*193 out9
*194 out90
*195 out91
*196 out92
*197 out93
*198 out94
*199 out95
*200 out96
*201 out97
*202 out98
*203 out99
*204 rst
*205 clknet_0_clk
*206 clknet_0_net108
*207 clknet_0_net116
*208 clknet_0_net117
*209 clknet_0_net122
*210 clknet_0_net123
*211 clknet_0_net124
*212 clknet_0_net125
*213 clknet_0_net126
*214 clknet_0_net127
*215 clknet_0_net128
*216 clknet_0_net129
*217 clknet_0_net130
*218 clknet_0_net131
*219 clknet_0_net132
*220 clknet_0_net133
*221 clknet_0_net134
*222 clknet_0_net135
*223 clknet_0_net136
*224 clknet_0_net137
*225 clknet_0_net138
*226 clknet_0_net139
*227 clknet_0_net142
*228 clknet_0_net159
*229 clknet_0_net160
*230 clknet_0_net164
*231 clknet_0_net166
*232 clknet_0_net177
*233 clknet_0_net178
*234 clknet_0_net179
*235 clknet_0_net180
*236 clknet_0_net181
*237 clknet_0_net182
*238 clknet_0_net183
*239 clknet_0_net184
*240 clknet_0_net185
*241 clknet_0_net186
*242 clknet_0_net187
*243 clknet_0_net188
*244 clknet_0_net189
*245 clknet_0_net191
*246 clknet_0_net193
*247 clknet_0_net194
*248 clknet_0_net197
*249 clknet_0_net207
*250 clknet_0_net208
*251 clknet_0_net209
*252 clknet_0_net212
*253 clknet_0_net217
*254 clknet_0_net218
*255 clknet_0_net219
*256 clknet_0_net220
*257 clknet_0_net221
*258 clknet_0_net222
*259 clknet_0_net223
*260 clknet_0_net224
*261 clknet_0_net225
*262 clknet_0_net226
*263 clknet_0_net227
*264 clknet_0_net228
*265 clknet_0_net229
*266 clknet_0_net230
*267 clknet_0_net231
*268 clknet_0_net232
*269 clknet_0_net233
*270 clknet_0_net234
*271 clknet_0_net235
*272 clknet_0_net236
*273 clknet_0_net238
*274 clknet_0_net243
*275 clknet_0_net244
*276 clknet_0_net246
*277 clknet_0_net247
*278 clknet_0_net248
*279 clknet_0_net249
*280 clknet_0_net256
*281 clknet_0_net259
*282 clknet_0_net292
*283 clknet_0_net327
*284 clknet_0_net344
*285 clknet_0_net345
*286 clknet_0_net346
*287 clknet_0_net347
*288 clknet_0_net348
*289 clknet_0_net349
*290 clknet_0_net350
*291 clknet_0_net351
*292 clknet_0_net352
*293 clknet_0_net353
*294 clknet_0_net354
*295 clknet_0_net355
*296 clknet_0_net356
*297 clknet_0_net357
*298 clknet_0_net360
*299 clknet_0_net361
*300 clknet_0_net362
*301 clknet_0_net363
*302 clknet_0_net364
*303 clknet_0_net365
*304 clknet_0_net366
*305 clknet_0_net367
*306 clknet_0_net369
*307 clknet_0_net370
*308 clknet_0_net376
*309 clknet_0_net402
*310 clknet_0_net451
*311 clknet_0_net452
*312 clknet_0_net453
*313 clknet_0_net462
*314 clknet_0_net468
*315 clknet_0_net473
*316 clknet_0_net483
*317 clknet_0_net484
*318 clknet_0_net486
*319 clknet_0_net487
*320 clknet_0_net488
*321 clknet_0_net489
*322 clknet_0_net490
*323 clknet_0_net491
*324 clknet_0_net492
*325 clknet_0_net501
*326 clknet_0_net502
*327 clknet_0_net503
*328 clknet_0_net504
*329 clknet_0_net505
*330 clknet_0_net506
*331 clknet_0_net507
*332 clknet_0_net508
*333 clknet_0_net509
*334 clknet_0_net510
*335 clknet_0_net511
*336 clknet_0_net512
*337 clknet_0_net513
*338 clknet_0_net514
*339 clknet_0_net515
*340 clknet_0_net517
*341 clknet_0_net518
*342 clknet_0_net519
*343 clknet_0_net520
*344 clknet_0_net521
*345 clknet_0_net522
*346 clknet_0_net523
*347 clknet_0_net524
*348 clknet_0_net525
*349 clknet_0_net526
*350 clknet_0_net527
*351 clknet_0_net531
*352 clknet_0_net532
*353 clknet_0_net535
*354 clknet_0_net540
*355 clknet_0_net541
*356 clknet_0_net550
*357 clknet_0_net555
*358 clknet_0_net556
*359 clknet_0_net559
*360 clknet_0_net560
*361 clknet_0_net562
*362 clknet_0_net564
*363 clknet_0_net565
*364 clknet_0_net566
*365 clknet_0_net571
*366 clknet_0_net573
*367 clknet_0_net578
*368 clknet_0_net584
*369 clknet_0_net592
*370 clknet_0_net593
*371 clknet_0_net594
*372 clknet_0_net595
*373 clknet_0_net596
*374 clknet_0_net597
*375 clknet_0_net598
*376 clknet_0_net599
*377 clknet_0_net600
*378 clknet_0_net601
*379 clknet_0_net604
*380 clknet_0_net628
*381 clknet_0_net654
*382 clknet_0_net675
*383 clknet_0_net676
*384 clknet_0_net677
*385 clknet_0_net707
*386 clknet_0_net709
*387 clknet_0_net710
*388 clknet_0_net711
*389 clknet_0_net729
*390 clknet_0_net746
*391 clknet_0_net747
*392 clknet_0_net764
*393 clknet_0_net765
*394 clknet_0_net766
*395 clknet_0_net877
*396 clknet_0_net878
*397 clknet_0_net880
*398 clknet_0_net883
*399 clknet_0_net884
*400 clknet_0_net887
*401 clknet_0_net888
*402 clknet_0_net889
*403 clknet_0_net890
*404 clknet_0_net891
*405 clknet_0_net894
*406 clknet_0_net895
*407 clknet_0_net898
*408 clknet_0_net901
*409 clknet_1_0__leaf_net108
*410 clknet_1_0__leaf_net116
*411 clknet_1_0__leaf_net117
*412 clknet_1_0__leaf_net122
*413 clknet_1_0__leaf_net123
*414 clknet_1_0__leaf_net124
*415 clknet_1_0__leaf_net125
*416 clknet_1_0__leaf_net126
*417 clknet_1_0__leaf_net127
*418 clknet_1_0__leaf_net128
*419 clknet_1_0__leaf_net129
*420 clknet_1_0__leaf_net130
*421 clknet_1_0__leaf_net131
*422 clknet_1_0__leaf_net132
*423 clknet_1_0__leaf_net133
*424 clknet_1_0__leaf_net134
*425 clknet_1_0__leaf_net135
*426 clknet_1_0__leaf_net136
*427 clknet_1_0__leaf_net137
*428 clknet_1_0__leaf_net138
*429 clknet_1_0__leaf_net139
*430 clknet_1_0__leaf_net142
*431 clknet_1_0__leaf_net159
*432 clknet_1_0__leaf_net160
*433 clknet_1_0__leaf_net164
*434 clknet_1_0__leaf_net166
*435 clknet_1_0__leaf_net177
*436 clknet_1_0__leaf_net178
*437 clknet_1_0__leaf_net179
*438 clknet_1_0__leaf_net180
*439 clknet_1_0__leaf_net181
*440 clknet_1_0__leaf_net182
*441 clknet_1_0__leaf_net183
*442 clknet_1_0__leaf_net184
*443 clknet_1_0__leaf_net185
*444 clknet_1_0__leaf_net186
*445 clknet_1_0__leaf_net187
*446 clknet_1_0__leaf_net188
*447 clknet_1_0__leaf_net189
*448 clknet_1_0__leaf_net191
*449 clknet_1_0__leaf_net193
*450 clknet_1_0__leaf_net194
*451 clknet_1_0__leaf_net197
*452 clknet_1_0__leaf_net207
*453 clknet_1_0__leaf_net208
*454 clknet_1_0__leaf_net209
*455 clknet_1_0__leaf_net212
*456 clknet_1_0__leaf_net217
*457 clknet_1_0__leaf_net218
*458 clknet_1_0__leaf_net219
*459 clknet_1_0__leaf_net220
*460 clknet_1_0__leaf_net221
*461 clknet_1_0__leaf_net222
*462 clknet_1_0__leaf_net223
*463 clknet_1_0__leaf_net224
*464 clknet_1_0__leaf_net225
*465 clknet_1_0__leaf_net226
*466 clknet_1_0__leaf_net227
*467 clknet_1_0__leaf_net228
*468 clknet_1_0__leaf_net229
*469 clknet_1_0__leaf_net230
*470 clknet_1_0__leaf_net231
*471 clknet_1_0__leaf_net232
*472 clknet_1_0__leaf_net233
*473 clknet_1_0__leaf_net234
*474 clknet_1_0__leaf_net235
*475 clknet_1_0__leaf_net236
*476 clknet_1_0__leaf_net238
*477 clknet_1_0__leaf_net243
*478 clknet_1_0__leaf_net244
*479 clknet_1_0__leaf_net246
*480 clknet_1_0__leaf_net247
*481 clknet_1_0__leaf_net248
*482 clknet_1_0__leaf_net249
*483 clknet_1_0__leaf_net256
*484 clknet_1_0__leaf_net259
*485 clknet_1_0__leaf_net292
*486 clknet_1_0__leaf_net327
*487 clknet_1_0__leaf_net344
*488 clknet_1_0__leaf_net345
*489 clknet_1_0__leaf_net346
*490 clknet_1_0__leaf_net347
*491 clknet_1_0__leaf_net348
*492 clknet_1_0__leaf_net349
*493 clknet_1_0__leaf_net350
*494 clknet_1_0__leaf_net351
*495 clknet_1_0__leaf_net352
*496 clknet_1_0__leaf_net353
*497 clknet_1_0__leaf_net354
*498 clknet_1_0__leaf_net355
*499 clknet_1_0__leaf_net356
*500 clknet_1_0__leaf_net357
*501 clknet_1_0__leaf_net360
*502 clknet_1_0__leaf_net361
*503 clknet_1_0__leaf_net362
*504 clknet_1_0__leaf_net363
*505 clknet_1_0__leaf_net364
*506 clknet_1_0__leaf_net365
*507 clknet_1_0__leaf_net366
*508 clknet_1_0__leaf_net367
*509 clknet_1_0__leaf_net369
*510 clknet_1_0__leaf_net370
*511 clknet_1_0__leaf_net376
*512 clknet_1_0__leaf_net402
*513 clknet_1_0__leaf_net451
*514 clknet_1_0__leaf_net452
*515 clknet_1_0__leaf_net453
*516 clknet_1_0__leaf_net462
*517 clknet_1_0__leaf_net468
*518 clknet_1_0__leaf_net473
*519 clknet_1_0__leaf_net483
*520 clknet_1_0__leaf_net484
*521 clknet_1_0__leaf_net486
*522 clknet_1_0__leaf_net487
*523 clknet_1_0__leaf_net488
*524 clknet_1_0__leaf_net489
*525 clknet_1_0__leaf_net490
*526 clknet_1_0__leaf_net491
*527 clknet_1_0__leaf_net492
*528 clknet_1_0__leaf_net501
*529 clknet_1_0__leaf_net502
*530 clknet_1_0__leaf_net503
*531 clknet_1_0__leaf_net504
*532 clknet_1_0__leaf_net505
*533 clknet_1_0__leaf_net506
*534 clknet_1_0__leaf_net507
*535 clknet_1_0__leaf_net508
*536 clknet_1_0__leaf_net509
*537 clknet_1_0__leaf_net510
*538 clknet_1_0__leaf_net511
*539 clknet_1_0__leaf_net512
*540 clknet_1_0__leaf_net513
*541 clknet_1_0__leaf_net514
*542 clknet_1_0__leaf_net515
*543 clknet_1_0__leaf_net517
*544 clknet_1_0__leaf_net518
*545 clknet_1_0__leaf_net519
*546 clknet_1_0__leaf_net520
*547 clknet_1_0__leaf_net521
*548 clknet_1_0__leaf_net522
*549 clknet_1_0__leaf_net523
*550 clknet_1_0__leaf_net524
*551 clknet_1_0__leaf_net525
*552 clknet_1_0__leaf_net526
*553 clknet_1_0__leaf_net527
*554 clknet_1_0__leaf_net531
*555 clknet_1_0__leaf_net532
*556 clknet_1_0__leaf_net535
*557 clknet_1_0__leaf_net540
*558 clknet_1_0__leaf_net541
*559 clknet_1_0__leaf_net550
*560 clknet_1_0__leaf_net555
*561 clknet_1_0__leaf_net556
*562 clknet_1_0__leaf_net559
*563 clknet_1_0__leaf_net560
*564 clknet_1_0__leaf_net562
*565 clknet_1_0__leaf_net564
*566 clknet_1_0__leaf_net565
*567 clknet_1_0__leaf_net566
*568 clknet_1_0__leaf_net571
*569 clknet_1_0__leaf_net573
*570 clknet_1_0__leaf_net578
*571 clknet_1_0__leaf_net584
*572 clknet_1_0__leaf_net592
*573 clknet_1_0__leaf_net593
*574 clknet_1_0__leaf_net594
*575 clknet_1_0__leaf_net595
*576 clknet_1_0__leaf_net596
*577 clknet_1_0__leaf_net597
*578 clknet_1_0__leaf_net598
*579 clknet_1_0__leaf_net599
*580 clknet_1_0__leaf_net600
*581 clknet_1_0__leaf_net601
*582 clknet_1_0__leaf_net604
*583 clknet_1_0__leaf_net628
*584 clknet_1_0__leaf_net654
*585 clknet_1_0__leaf_net675
*586 clknet_1_0__leaf_net676
*587 clknet_1_0__leaf_net677
*588 clknet_1_0__leaf_net707
*589 clknet_1_0__leaf_net709
*590 clknet_1_0__leaf_net710
*591 clknet_1_0__leaf_net711
*592 clknet_1_0__leaf_net729
*593 clknet_1_0__leaf_net746
*594 clknet_1_0__leaf_net747
*595 clknet_1_0__leaf_net764
*596 clknet_1_0__leaf_net765
*597 clknet_1_0__leaf_net766
*598 clknet_1_0__leaf_net877
*599 clknet_1_0__leaf_net878
*600 clknet_1_0__leaf_net880
*601 clknet_1_0__leaf_net883
*602 clknet_1_0__leaf_net884
*603 clknet_1_0__leaf_net887
*604 clknet_1_0__leaf_net888
*605 clknet_1_0__leaf_net889
*606 clknet_1_0__leaf_net890
*607 clknet_1_0__leaf_net891
*608 clknet_1_0__leaf_net894
*609 clknet_1_0__leaf_net895
*610 clknet_1_0__leaf_net898
*611 clknet_1_0__leaf_net901
*612 clknet_1_1__leaf_net108
*613 clknet_1_1__leaf_net116
*614 clknet_1_1__leaf_net117
*615 clknet_1_1__leaf_net122
*616 clknet_1_1__leaf_net123
*617 clknet_1_1__leaf_net124
*618 clknet_1_1__leaf_net125
*619 clknet_1_1__leaf_net126
*620 clknet_1_1__leaf_net127
*621 clknet_1_1__leaf_net128
*622 clknet_1_1__leaf_net129
*623 clknet_1_1__leaf_net130
*624 clknet_1_1__leaf_net131
*625 clknet_1_1__leaf_net132
*626 clknet_1_1__leaf_net133
*627 clknet_1_1__leaf_net134
*628 clknet_1_1__leaf_net135
*629 clknet_1_1__leaf_net136
*630 clknet_1_1__leaf_net137
*631 clknet_1_1__leaf_net138
*632 clknet_1_1__leaf_net139
*633 clknet_1_1__leaf_net142
*634 clknet_1_1__leaf_net159
*635 clknet_1_1__leaf_net160
*636 clknet_1_1__leaf_net164
*637 clknet_1_1__leaf_net166
*638 clknet_1_1__leaf_net177
*639 clknet_1_1__leaf_net178
*640 clknet_1_1__leaf_net179
*641 clknet_1_1__leaf_net180
*642 clknet_1_1__leaf_net181
*643 clknet_1_1__leaf_net182
*644 clknet_1_1__leaf_net183
*645 clknet_1_1__leaf_net184
*646 clknet_1_1__leaf_net185
*647 clknet_1_1__leaf_net186
*648 clknet_1_1__leaf_net187
*649 clknet_1_1__leaf_net188
*650 clknet_1_1__leaf_net189
*651 clknet_1_1__leaf_net191
*652 clknet_1_1__leaf_net193
*653 clknet_1_1__leaf_net194
*654 clknet_1_1__leaf_net197
*655 clknet_1_1__leaf_net207
*656 clknet_1_1__leaf_net208
*657 clknet_1_1__leaf_net209
*658 clknet_1_1__leaf_net212
*659 clknet_1_1__leaf_net217
*660 clknet_1_1__leaf_net218
*661 clknet_1_1__leaf_net219
*662 clknet_1_1__leaf_net220
*663 clknet_1_1__leaf_net221
*664 clknet_1_1__leaf_net222
*665 clknet_1_1__leaf_net223
*666 clknet_1_1__leaf_net224
*667 clknet_1_1__leaf_net225
*668 clknet_1_1__leaf_net226
*669 clknet_1_1__leaf_net227
*670 clknet_1_1__leaf_net228
*671 clknet_1_1__leaf_net229
*672 clknet_1_1__leaf_net230
*673 clknet_1_1__leaf_net231
*674 clknet_1_1__leaf_net232
*675 clknet_1_1__leaf_net233
*676 clknet_1_1__leaf_net234
*677 clknet_1_1__leaf_net235
*678 clknet_1_1__leaf_net236
*679 clknet_1_1__leaf_net238
*680 clknet_1_1__leaf_net243
*681 clknet_1_1__leaf_net244
*682 clknet_1_1__leaf_net246
*683 clknet_1_1__leaf_net247
*684 clknet_1_1__leaf_net248
*685 clknet_1_1__leaf_net249
*686 clknet_1_1__leaf_net256
*687 clknet_1_1__leaf_net259
*688 clknet_1_1__leaf_net292
*689 clknet_1_1__leaf_net327
*690 clknet_1_1__leaf_net344
*691 clknet_1_1__leaf_net345
*692 clknet_1_1__leaf_net346
*693 clknet_1_1__leaf_net347
*694 clknet_1_1__leaf_net348
*695 clknet_1_1__leaf_net349
*696 clknet_1_1__leaf_net350
*697 clknet_1_1__leaf_net351
*698 clknet_1_1__leaf_net352
*699 clknet_1_1__leaf_net353
*700 clknet_1_1__leaf_net354
*701 clknet_1_1__leaf_net355
*702 clknet_1_1__leaf_net356
*703 clknet_1_1__leaf_net357
*704 clknet_1_1__leaf_net360
*705 clknet_1_1__leaf_net361
*706 clknet_1_1__leaf_net362
*707 clknet_1_1__leaf_net363
*708 clknet_1_1__leaf_net364
*709 clknet_1_1__leaf_net365
*710 clknet_1_1__leaf_net366
*711 clknet_1_1__leaf_net367
*712 clknet_1_1__leaf_net369
*713 clknet_1_1__leaf_net370
*714 clknet_1_1__leaf_net376
*715 clknet_1_1__leaf_net402
*716 clknet_1_1__leaf_net451
*717 clknet_1_1__leaf_net452
*718 clknet_1_1__leaf_net453
*719 clknet_1_1__leaf_net462
*720 clknet_1_1__leaf_net468
*721 clknet_1_1__leaf_net473
*722 clknet_1_1__leaf_net483
*723 clknet_1_1__leaf_net484
*724 clknet_1_1__leaf_net486
*725 clknet_1_1__leaf_net487
*726 clknet_1_1__leaf_net488
*727 clknet_1_1__leaf_net489
*728 clknet_1_1__leaf_net490
*729 clknet_1_1__leaf_net491
*730 clknet_1_1__leaf_net492
*731 clknet_1_1__leaf_net501
*732 clknet_1_1__leaf_net502
*733 clknet_1_1__leaf_net503
*734 clknet_1_1__leaf_net504
*735 clknet_1_1__leaf_net505
*736 clknet_1_1__leaf_net506
*737 clknet_1_1__leaf_net507
*738 clknet_1_1__leaf_net508
*739 clknet_1_1__leaf_net509
*740 clknet_1_1__leaf_net510
*741 clknet_1_1__leaf_net511
*742 clknet_1_1__leaf_net512
*743 clknet_1_1__leaf_net513
*744 clknet_1_1__leaf_net514
*745 clknet_1_1__leaf_net515
*746 clknet_1_1__leaf_net517
*747 clknet_1_1__leaf_net518
*748 clknet_1_1__leaf_net519
*749 clknet_1_1__leaf_net520
*750 clknet_1_1__leaf_net521
*751 clknet_1_1__leaf_net522
*752 clknet_1_1__leaf_net523
*753 clknet_1_1__leaf_net524
*754 clknet_1_1__leaf_net525
*755 clknet_1_1__leaf_net526
*756 clknet_1_1__leaf_net527
*757 clknet_1_1__leaf_net531
*758 clknet_1_1__leaf_net532
*759 clknet_1_1__leaf_net535
*760 clknet_1_1__leaf_net540
*761 clknet_1_1__leaf_net541
*762 clknet_1_1__leaf_net550
*763 clknet_1_1__leaf_net555
*764 clknet_1_1__leaf_net556
*765 clknet_1_1__leaf_net559
*766 clknet_1_1__leaf_net560
*767 clknet_1_1__leaf_net562
*768 clknet_1_1__leaf_net564
*769 clknet_1_1__leaf_net565
*770 clknet_1_1__leaf_net566
*771 clknet_1_1__leaf_net571
*772 clknet_1_1__leaf_net573
*773 clknet_1_1__leaf_net578
*774 clknet_1_1__leaf_net584
*775 clknet_1_1__leaf_net592
*776 clknet_1_1__leaf_net593
*777 clknet_1_1__leaf_net594
*778 clknet_1_1__leaf_net595
*779 clknet_1_1__leaf_net596
*780 clknet_1_1__leaf_net597
*781 clknet_1_1__leaf_net598
*782 clknet_1_1__leaf_net599
*783 clknet_1_1__leaf_net600
*784 clknet_1_1__leaf_net601
*785 clknet_1_1__leaf_net604
*786 clknet_1_1__leaf_net628
*787 clknet_1_1__leaf_net654
*788 clknet_1_1__leaf_net675
*789 clknet_1_1__leaf_net676
*790 clknet_1_1__leaf_net677
*791 clknet_1_1__leaf_net707
*792 clknet_1_1__leaf_net709
*793 clknet_1_1__leaf_net710
*794 clknet_1_1__leaf_net711
*795 clknet_1_1__leaf_net729
*796 clknet_1_1__leaf_net746
*797 clknet_1_1__leaf_net747
*798 clknet_1_1__leaf_net764
*799 clknet_1_1__leaf_net765
*800 clknet_1_1__leaf_net766
*801 clknet_1_1__leaf_net877
*802 clknet_1_1__leaf_net878
*803 clknet_1_1__leaf_net880
*804 clknet_1_1__leaf_net883
*805 clknet_1_1__leaf_net884
*806 clknet_1_1__leaf_net887
*807 clknet_1_1__leaf_net888
*808 clknet_1_1__leaf_net889
*809 clknet_1_1__leaf_net890
*810 clknet_1_1__leaf_net891
*811 clknet_1_1__leaf_net894
*812 clknet_1_1__leaf_net895
*813 clknet_1_1__leaf_net898
*814 clknet_1_1__leaf_net901
*815 clknet_4_0_0_clk
*816 clknet_4_10_0_clk
*817 clknet_4_11_0_clk
*818 clknet_4_12_0_clk
*819 clknet_4_13_0_clk
*820 clknet_4_14_0_clk
*821 clknet_4_15_0_clk
*822 clknet_4_1_0_clk
*823 clknet_4_2_0_clk
*824 clknet_4_3_0_clk
*825 clknet_4_4_0_clk
*826 clknet_4_5_0_clk
*827 clknet_4_6_0_clk
*828 clknet_4_7_0_clk
*829 clknet_4_8_0_clk
*830 clknet_4_9_0_clk
*831 net0
*832 net1
*833 net10
*834 net100
*835 net101
*836 net102
*837 net103
*838 net104
*839 net105
*840 net106
*841 net107
*842 net108
*843 net109
*844 net11
*845 net110
*846 net111
*847 net112
*848 net113
*849 net114
*850 net115
*851 net116
*852 net117
*853 net118
*854 net119
*855 net12
*856 net120
*857 net121
*858 net122
*859 net123
*860 net124
*861 net125
*862 net126
*863 net127
*864 net128
*865 net129
*866 net13
*867 net130
*868 net131
*869 net132
*870 net133
*871 net134
*872 net135
*873 net136
*874 net137
*875 net138
*876 net139
*877 net14
*878 net140
*879 net141
*880 net142
*881 net143
*882 net144
*883 net145
*884 net146
*885 net147
*886 net148
*887 net149
*888 net15
*889 net150
*890 net151
*891 net152
*892 net153
*893 net154
*894 net155
*895 net156
*896 net157
*897 net158
*898 net159
*899 net16
*900 net160
*901 net161
*902 net162
*903 net163
*904 net164
*905 net165
*906 net166
*907 net167
*908 net168
*909 net169
*910 net17
*911 net170
*912 net171
*913 net172
*914 net173
*915 net174
*916 net175
*917 net176
*918 net177
*919 net178
*920 net179
*921 net18
*922 net180
*923 net181
*924 net182
*925 net183
*926 net184
*927 net185
*928 net186
*929 net187
*930 net188
*931 net189
*932 net19
*933 net190
*934 net191
*935 net192
*936 net193
*937 net194
*938 net195
*939 net196
*940 net197
*941 net198
*942 net199
*943 net2
*944 net20
*945 net200
*946 net201
*947 net202
*948 net203
*949 net204
*950 net205
*951 net206
*952 net207
*953 net208
*954 net209
*955 net21
*956 net210
*957 net211
*958 net212
*959 net213
*960 net214
*961 net215
*962 net216
*963 net217
*964 net218
*965 net219
*966 net22
*967 net220
*968 net221
*969 net222
*970 net223
*971 net224
*972 net225
*973 net226
*974 net227
*975 net228
*976 net229
*977 net23
*978 net230
*979 net231
*980 net232
*981 net233
*982 net234
*983 net235
*984 net236
*985 net237
*986 net238
*987 net239
*988 net24
*989 net240
*990 net241
*991 net242
*992 net243
*993 net244
*994 net245
*995 net246
*996 net247
*997 net248
*998 net249
*999 net25
*1000 net250
*1001 net251
*1002 net252
*1003 net253
*1004 net254
*1005 net255
*1006 net256
*1007 net257
*1008 net258
*1009 net259
*1010 net26
*1011 net260
*1012 net261
*1013 net262
*1014 net263
*1015 net264
*1016 net265
*1017 net266
*1018 net267
*1019 net268
*1020 net269
*1021 net27
*1022 net270
*1023 net271
*1024 net272
*1025 net273
*1026 net274
*1027 net275
*1028 net276
*1029 net277
*1030 net278
*1031 net279
*1032 net28
*1033 net280
*1034 net281
*1035 net282
*1036 net283
*1037 net284
*1038 net285
*1039 net286
*1040 net287
*1041 net288
*1042 net289
*1043 net29
*1044 net290
*1045 net291
*1046 net292
*1047 net293
*1048 net294
*1049 net295
*1050 net296
*1051 net297
*1052 net298
*1053 net299
*1054 net3
*1055 net30
*1056 net300
*1057 net301
*1058 net302
*1059 net303
*1060 net304
*1061 net305
*1062 net306
*1063 net307
*1064 net308
*1065 net309
*1066 net31
*1067 net310
*1068 net311
*1069 net312
*1070 net313
*1071 net314
*1072 net315
*1073 net316
*1074 net317
*1075 net318
*1076 net319
*1077 net32
*1078 net320
*1079 net321
*1080 net322
*1081 net323
*1082 net324
*1083 net325
*1084 net326
*1085 net327
*1086 net328
*1087 net329
*1088 net33
*1089 net330
*1090 net331
*1091 net332
*1092 net333
*1093 net334
*1094 net335
*1095 net336
*1096 net337
*1097 net338
*1098 net339
*1099 net34
*1100 net340
*1101 net341
*1102 net342
*1103 net343
*1104 net344
*1105 net345
*1106 net346
*1107 net347
*1108 net348
*1109 net349
*1110 net35
*1111 net350
*1112 net351
*1113 net352
*1114 net353
*1115 net354
*1116 net355
*1117 net356
*1118 net357
*1119 net358
*1120 net359
*1121 net36
*1122 net360
*1123 net361
*1124 net362
*1125 net363
*1126 net364
*1127 net365
*1128 net366
*1129 net367
*1130 net368
*1131 net369
*1132 net37
*1133 net370
*1134 net371
*1135 net372
*1136 net373
*1137 net374
*1138 net375
*1139 net376
*1140 net377
*1141 net378
*1142 net379
*1143 net38
*1144 net380
*1145 net381
*1146 net382
*1147 net383
*1148 net384
*1149 net385
*1150 net386
*1151 net387
*1152 net388
*1153 net389
*1154 net39
*1155 net390
*1156 net391
*1157 net392
*1158 net393
*1159 net394
*1160 net395
*1161 net396
*1162 net397
*1163 net398
*1164 net399
*1165 net4
*1166 net40
*1167 net400
*1168 net401
*1169 net402
*1170 net403
*1171 net404
*1172 net405
*1173 net406
*1174 net407
*1175 net408
*1176 net409
*1177 net41
*1178 net410
*1179 net411
*1180 net412
*1181 net413
*1182 net414
*1183 net415
*1184 net416
*1185 net417
*1186 net418
*1187 net419
*1188 net42
*1189 net420
*1190 net421
*1191 net422
*1192 net423
*1193 net424
*1194 net425
*1195 net426
*1196 net427
*1197 net428
*1198 net429
*1199 net43
*1200 net430
*1201 net431
*1202 net432
*1203 net433
*1204 net434
*1205 net435
*1206 net436
*1207 net437
*1208 net438
*1209 net439
*1210 net44
*1211 net440
*1212 net441
*1213 net442
*1214 net443
*1215 net444
*1216 net445
*1217 net446
*1218 net447
*1219 net448
*1220 net449
*1221 net45
*1222 net450
*1223 net451
*1224 net452
*1225 net453
*1226 net454
*1227 net455
*1228 net456
*1229 net457
*1230 net458
*1231 net459
*1232 net46
*1233 net460
*1234 net461
*1235 net462
*1236 net463
*1237 net464
*1238 net465
*1239 net466
*1240 net467
*1241 net468
*1242 net469
*1243 net47
*1244 net470
*1245 net471
*1246 net472
*1247 net473
*1248 net474
*1249 net475
*1250 net476
*1251 net477
*1252 net478
*1253 net479
*1254 net48
*1255 net480
*1256 net481
*1257 net482
*1258 net483
*1259 net484
*1260 net485
*1261 net486
*1262 net487
*1263 net488
*1264 net489
*1265 net49
*1266 net490
*1267 net491
*1268 net492
*1269 net493
*1270 net494
*1271 net495
*1272 net496
*1273 net497
*1274 net498
*1275 net499
*1276 net5
*1277 net50
*1278 net500
*1279 net501
*1280 net502
*1281 net503
*1282 net504
*1283 net505
*1284 net506
*1285 net507
*1286 net508
*1287 net509
*1288 net51
*1289 net510
*1290 net511
*1291 net512
*1292 net513
*1293 net514
*1294 net515
*1295 net516
*1296 net517
*1297 net518
*1298 net519
*1299 net52
*1300 net520
*1301 net521
*1302 net522
*1303 net523
*1304 net524
*1305 net525
*1306 net526
*1307 net527
*1308 net528
*1309 net529
*1310 net53
*1311 net530
*1312 net531
*1313 net532
*1314 net533
*1315 net534
*1316 net535
*1317 net536
*1318 net537
*1319 net538
*1320 net539
*1321 net54
*1322 net540
*1323 net541
*1324 net542
*1325 net543
*1326 net544
*1327 net545
*1328 net546
*1329 net547
*1330 net548
*1331 net549
*1332 net55
*1333 net550
*1334 net551
*1335 net552
*1336 net553
*1337 net554
*1338 net555
*1339 net556
*1340 net557
*1341 net558
*1342 net559
*1343 net56
*1344 net560
*1345 net561
*1346 net562
*1347 net563
*1348 net564
*1349 net565
*1350 net566
*1351 net567
*1352 net568
*1353 net569
*1354 net57
*1355 net570
*1356 net571
*1357 net572
*1358 net573
*1359 net574
*1360 net575
*1361 net576
*1362 net577
*1363 net578
*1364 net579
*1365 net58
*1366 net580
*1367 net581
*1368 net582
*1369 net583
*1370 net584
*1371 net585
*1372 net586
*1373 net587
*1374 net588
*1375 net589
*1376 net59
*1377 net590
*1378 net591
*1379 net592
*1380 net593
*1381 net594
*1382 net595
*1383 net596
*1384 net597
*1385 net598
*1386 net599
*1387 net6
*1388 net60
*1389 net600
*1390 net601
*1391 net602
*1392 net603
*1393 net604
*1394 net605
*1395 net606
*1396 net607
*1397 net608
*1398 net609
*1399 net61
*1400 net610
*1401 net611
*1402 net612
*1403 net613
*1404 net614
*1405 net615
*1406 net616
*1407 net617
*1408 net618
*1409 net619
*1410 net62
*1411 net620
*1412 net621
*1413 net622
*1414 net623
*1415 net624
*1416 net625
*1417 net626
*1418 net627
*1419 net628
*1420 net629
*1421 net63
*1422 net630
*1423 net631
*1424 net632
*1425 net633
*1426 net634
*1427 net635
*1428 net636
*1429 net637
*1430 net638
*1431 net639
*1432 net64
*1433 net640
*1434 net641
*1435 net642
*1436 net643
*1437 net644
*1438 net645
*1439 net646
*1440 net647
*1441 net648
*1442 net649
*1443 net65
*1444 net650
*1445 net651
*1446 net652
*1447 net653
*1448 net654
*1449 net655
*1450 net656
*1451 net657
*1452 net658
*1453 net659
*1454 net66
*1455 net660
*1456 net661
*1457 net662
*1458 net663
*1459 net664
*1460 net665
*1461 net666
*1462 net667
*1463 net668
*1464 net669
*1465 net67
*1466 net670
*1467 net671
*1468 net672
*1469 net673
*1470 net674
*1471 net675
*1472 net676
*1473 net677
*1474 net678
*1475 net679
*1476 net68
*1477 net680
*1478 net681
*1479 net682
*1480 net683
*1481 net684
*1482 net685
*1483 net686
*1484 net687
*1485 net688
*1486 net689
*1487 net69
*1488 net690
*1489 net691
*1490 net692
*1491 net693
*1492 net694
*1493 net695
*1494 net696
*1495 net697
*1496 net698
*1497 net699
*1498 net7
*1499 net70
*1500 net700
*1501 net701
*1502 net702
*1503 net703
*1504 net704
*1505 net705
*1506 net706
*1507 net707
*1508 net708
*1509 net709
*1510 net71
*1511 net710
*1512 net711
*1513 net712
*1514 net713
*1515 net714
*1516 net715
*1517 net716
*1518 net717
*1519 net718
*1520 net719
*1521 net72
*1522 net720
*1523 net721
*1524 net722
*1525 net723
*1526 net724
*1527 net725
*1528 net726
*1529 net727
*1530 net728
*1531 net729
*1532 net73
*1533 net730
*1534 net731
*1535 net732
*1536 net733
*1537 net734
*1538 net735
*1539 net736
*1540 net737
*1541 net738
*1542 net739
*1543 net74
*1544 net740
*1545 net741
*1546 net742
*1547 net743
*1548 net744
*1549 net745
*1550 net746
*1551 net747
*1552 net748
*1553 net749
*1554 net75
*1555 net750
*1556 net751
*1557 net752
*1558 net753
*1559 net754
*1560 net755
*1561 net756
*1562 net757
*1563 net758
*1564 net759
*1565 net76
*1566 net760
*1567 net761
*1568 net762
*1569 net763
*1570 net764
*1571 net765
*1572 net766
*1573 net767
*1574 net768
*1575 net769
*1576 net77
*1577 net770
*1578 net771
*1579 net772
*1580 net773
*1581 net774
*1582 net775
*1583 net776
*1584 net777
*1585 net778
*1586 net779
*1587 net78
*1588 net780
*1589 net781
*1590 net782
*1591 net783
*1592 net784
*1593 net785
*1594 net786
*1595 net787
*1596 net788
*1597 net789
*1598 net79
*1599 net790
*1600 net791
*1601 net792
*1602 net793
*1603 net794
*1604 net795
*1605 net796
*1606 net797
*1607 net798
*1608 net799
*1609 net8
*1610 net80
*1611 net800
*1612 net801
*1613 net802
*1614 net803
*1615 net804
*1616 net805
*1617 net806
*1618 net807
*1619 net808
*1620 net809
*1621 net81
*1622 net810
*1623 net811
*1624 net812
*1625 net813
*1626 net814
*1627 net815
*1628 net816
*1629 net817
*1630 net818
*1631 net819
*1632 net82
*1633 net820
*1634 net821
*1635 net822
*1636 net823
*1637 net824
*1638 net825
*1639 net826
*1640 net827
*1641 net828
*1642 net829
*1643 net83
*1644 net830
*1645 net831
*1646 net832
*1647 net833
*1648 net834
*1649 net835
*1650 net836
*1651 net837
*1652 net838
*1653 net839
*1654 net84
*1655 net840
*1656 net841
*1657 net842
*1658 net843
*1659 net844
*1660 net845
*1661 net846
*1662 net847
*1663 net848
*1664 net849
*1665 net85
*1666 net850
*1667 net851
*1668 net852
*1669 net853
*1670 net854
*1671 net855
*1672 net856
*1673 net857
*1674 net858
*1675 net859
*1676 net86
*1677 net860
*1678 net861
*1679 net862
*1680 net863
*1681 net864
*1682 net865
*1683 net866
*1684 net867
*1685 net868
*1686 net869
*1687 net87
*1688 net870
*1689 net871
*1690 net872
*1691 net873
*1692 net874
*1693 net875
*1694 net876
*1695 net877
*1696 net878
*1697 net879
*1698 net88
*1699 net880
*1700 net881
*1701 net882
*1702 net883
*1703 net884
*1704 net885
*1705 net886
*1706 net887
*1707 net888
*1708 net889
*1709 net89
*1710 net890
*1711 net891
*1712 net892
*1713 net893
*1714 net894
*1715 net895