*SPEF "ieee 1481-1999"
*DESIGN "netlist_1"
*DATE "22:20:29 Sunday August 04, 2024"
*VENDOR "The OpenROAD Project"
*PROGRAM "OpenROAD"
*VERSION "d423155d69de7f683a23f6916ead418a615ad4ad"
*DESIGN_FLOW "NAME_SCOPE LOCAL" "PIN_CAP NONE"
*DIVIDER /
*DELIMITER :
*BUS_DELIMITER []
*T_UNIT 1 NS
*C_UNIT 1 PF
*R_UNIT 1 OHM
*L_UNIT 1 HENRY

*NAME_MAP
*3 clk
*4 in0
*5 in1
*6 in10
*7 in11
*8 in12
*9 in13
*10 in14
*11 in15
*12 in16
*13 in17
*14 in18
*15 in19
*16 in2
*17 in20
*18 in21
*19 in22
*20 in23
*21 in24
*22 in25
*23 in26
*24 in27
*25 in28
*26 in29
*27 in3
*28 in30
*29 in31
*30 in32
*31 in33
*32 in34
*33 in35
*34 in36
*35 in37
*36 in38
*37 in39
*38 in4
*39 in40
*40 in41
*41 in42
*42 in43
*43 in44
*44 in45
*45 in46
*46 in47
*47 in48
*48 in49
*49 in5
*50 in50
*51 in51
*52 in52
*53 in53
*54 in54
*55 in55
*56 in56
*57 in57
*58 in58
*59 in59
*60 in6
*61 in60
*62 in61
*63 in7
*64 in8
*65 in9
*66 out0
*67 out1
*68 out10
*69 out11
*70 out12
*71 out13
*72 out14
*73 out15
*74 out16
*75 out17
*76 out18
*77 out19
*78 out2
*79 out20
*80 out21
*81 out22
*82 out23
*83 out24
*84 out25
*85 out26
*86 out27
*87 out28
*88 out29
*89 out3
*90 out30
*91 out31
*92 out32
*93 out33
*94 out34
*95 out35
*96 out36
*97 out37
*98 out38
*99 out39
*100 out4
*101 out40
*102 out41
*103 out42
*104 out43
*105 out44
*106 out45
*107 out46
*108 out47
*109 out48
*110 out49
*111 out5
*112 out50
*113 out51
*114 out52
*115 out53
*116 out54
*117 out55
*118 out56
*119 out57
*120 out58
*121 out59
*122 out6
*123 out60
*124 out61
*125 out7
*126 out8
*127 out9
*128 rst
*129 clknet_0_clk
*130 clknet_0_net663
*131 clknet_0_net664
*132 clknet_0_net750
*133 clknet_0_net764
*134 clknet_1_0__leaf_net663
*135 clknet_1_0__leaf_net664
*136 clknet_1_0__leaf_net750
*137 clknet_1_0__leaf_net764
*138 clknet_1_1__leaf_net663
*139 clknet_1_1__leaf_net664
*140 clknet_1_1__leaf_net750
*141 clknet_1_1__leaf_net764
*142 clknet_4_0_0_clk
*143 clknet_4_10_0_clk
*144 clknet_4_11_0_clk
*145 clknet_4_12_0_clk
*146 clknet_4_13_0_clk
*147 clknet_4_14_0_clk
*148 clknet_4_15_0_clk
*149 clknet_4_1_0_clk
*150 clknet_4_2_0_clk
*151 clknet_4_3_0_clk
*152 clknet_4_4_0_clk
*153 clknet_4_5_0_clk
*154 clknet_4_6_0_clk
*155 clknet_4_7_0_clk
*156 clknet_4_8_0_clk
*157 clknet_4_9_0_clk
*158 net0
*159 net1
*160 net10
*161 net100
*162 net101
*163 net102
*164 net103
*165 net104
*166 net105
*167 net106
*168 net107
*169 net108
*170 net109
*171 net11
*172 net110
*173 net111
*174 net112
*175 net113
*176 net114
*177 net115
*178 net116
*179 net117
*180 net118
*181 net119
*182 net12
*183 net120
*184 net121
*185 net122
*186 net123
*187 net124
*188 net125
*189 net126
*190 net127
*191 net128
*192 net129
*193 net13
*194 net130
*195 net131
*196 net132
*197 net133
*198 net134
*199 net135
*200 net136
*201 net137
*202 net138
*203 net139
*204 net14
*205 net140
*206 net141
*207 net142
*208 net143
*209 net144
*210 net145
*211 net146
*212 net147
*213 net148
*214 net149
*215 net15
*216 net150
*217 net151
*218 net152
*219 net153
*220 net154
*221 net155
*222 net156
*223 net157
*224 net158
*225 net159
*226 net16
*227 net160
*228 net161
*229 net162
*230 net163
*231 net164
*232 net165
*233 net166
*234 net167
*235 net168
*236 net169
*237 net17
*238 net170
*239 net171
*240 net172
*241 net173
*242 net174
*243 net175
*244 net176
*245 net177
*246 net178
*247 net179
*248 net18
*249 net180
*250 net181
*251 net182
*252 net183
*253 net184
*254 net185
*255 net186
*256 net187
*257 net188
*258 net189
*259 net19
*260 net190
*261 net191
*262 net192
*263 net193
*264 net194
*265 net195
*266 net196
*267 net197
*268 net198
*269 net199
*270 net2
*271 net20
*272 net200
*273 net201
*274 net202
*275 net203
*276 net204
*277 net205
*278 net206
*279 net207
*280 net208
*281 net209
*282 net21
*283 net210
*284 net211
*285 net212
*286 net213
*287 net214
*288 net215
*289 net216
*290 net217
*291 net218
*292 net219
*293 net22
*294 net220
*295 net221
*296 net222
*297 net223
*298 net224
*299 net225
*300 net226
*301 net227
*302 net228
*303 net229
*304 net23
*305 net230
*306 net231
*307 net232
*308 net233
*309 net234
*310 net235
*311 net236
*312 net237
*313 net238
*314 net239
*315 net24
*316 net240
*317 net241
*318 net242
*319 net243
*320 net244
*321 net245
*322 net246
*323 net247
*324 net248
*325 net249
*326 net25
*327 net250
*328 net251
*329 net252
*330 net253
*331 net254
*332 net255
*333 net256
*334 net257
*335 net258
*336 net259
*337 net26
*338 net260
*339 net261
*340 net262
*341 net263
*342 net264
*343 net265
*344 net266
*345 net267
*346 net268
*347 net269
*348 net27
*349 net270
*350 net271
*351 net272
*352 net273
*353 net274
*354 net275
*355 net276
*356 net277
*357 net278
*358 net279
*359 net28
*360 net280
*361 net281
*362 net282
*363 net283
*364 net284
*365 net285
*366 net286
*367 net287
*368 net288
*369 net289
*370 net29
*371 net290
*372 net291
*373 net292
*374 net293
*375 net294
*376 net295
*377 net296
*378 net297
*379 net298
*380 net299
*381 net3
*382 net30
*383 net300
*384 net301
*385 net302
*386 net303
*387 net304
*388 net305
*389 net306
*390 net307
*391 net308
*392 net309
*393 net31
*394 net310
*395 net311
*396 net312
*397 net313
*398 net314
*399 net315
*400 net316
*401 net317
*402 net318
*403 net319
*404 net32
*405 net320
*406 net321
*407 net322
*408 net323
*409 net324
*410 net325
*411 net326
*412 net327
*413 net328
*414 net329
*415 net33
*416 net330
*417 net331
*418 net332
*419 net333
*420 net334
*421 net335
*422 net336
*423 net337
*424 net338
*425 net339
*426 net34
*427 net340
*428 net341
*429 net342
*430 net343
*431 net344
*432 net345
*433 net346
*434 net347
*435 net348
*436 net349
*437 net35
*438 net350
*439 net351
*440 net352
*441 net353
*442 net354
*443 net355
*444 net356
*445 net357
*446 net358
*447 net359
*448 net36
*449 net360
*450 net361
*451 net362
*452 net363
*453 net364
*454 net365
*455 net366
*456 net367
*457 net368
*458 net369
*459 net37
*460 net370
*461 net371
*462 net372
*463 net373
*464 net374
*465 net375
*466 net376
*467 net377
*468 net378
*469 net379
*470 net38
*471 net380
*472 net381
*473 net382
*474 net383
*475 net384
*476 net385
*477 net386
*478 net387
*479 net388
*480 net389
*481 net39
*482 net390
*483 net391
*484 net392
*485 net393
*486 net394
*487 net395
*488 net396
*489 net397
*490 net398
*491 net399
*492 net4
*493 net40
*494 net400
*495 net401
*496 net402
*497 net403
*498 net404
*499 net405
*500 net406
*501 net407
*502 net408
*503 net409
*504 net41
*505 net410
*506 net411
*507 net412
*508 net413
*509 net414
*510 net415
*511 net416
*512 net417
*513 net418
*514 net419
*515 net42
*516 net420
*517 net421
*518 net422
*519 net423
*520 net424
*521 net425
*522 net426
*523 net427
*524 net428
*525 net429
*526 net43
*527 net430
*528 net431
*529 net432
*530 net433
*531 net434
*532 net435
*533 net436
*534 net437
*535 net438
*536 net439
*537 net44
*538 net440
*539 net441
*540 net442
*541 net443
*542 net444
*543 net445
*544 net446
*545 net447
*546 net448
*547 net449
*548 net45
*549 net450
*550 net451
*551 net452
*552 net453
*553 net454
*554 net455
*555 net456
*556 net457
*557 net458
*558 net459
*559 net46
*560 net460
*561 net461
*562 net462
*563 net463
*564 net464
*565 net465
*566 net466
*567 net467
*568 net468
*569 net469
*570 net47
*571 net470
*572 net471
*573 net472
*574 net473
*575 net474
*576 net475
*577 net476
*578 net477
*579 net478
*580 net479
*581 net48
*582 net480
*583 net481
*584 net482
*585 net483
*586 net484
*587 net485
*588 net486
*589 net487
*590 net488
*591 net489
*592 net49
*593 net490
*594 net491
*595 net492
*596 net493
*597 net494
*598 net495
*599 net496
*600 net497
*601 net498
*602 net499
*603 net5
*604 net50
*605 net500
*606 net501
*607 net502
*608 net503
*609 net504
*610 net505
*611 net506
*612 net507
*613 net508
*614 net509
*615 net51
*616 net510
*617 net511
*618 net512
*619 net513
*620 net514
*621 net515
*622 net516
*623 net517
*624 net518
*625 net519
*626 net52
*627 net520
*628 net521
*629 net522
*630 net523
*631 net524
*632 net525
*633 net526
*634 net527
*635 net528
*636 net529
*637 net53
*638 net530
*639 net531
*640 net532
*641 net533
*642 net534
*643 net535
*644 net536
*645 net537
*646 net538
*647 net539
*648 net54
*649 net540
*650 net541
*651 net542
*652 net543
*653 net544
*654 net545
*655 net546
*656 net547
*657 net548
*658 net549
*659 net55
*660 net550
*661 net551
*662 net552
*663 net553
*664 net554
*665 net555
*666 net556
*667 net557
*668 net558
*669 net559
*670 net56
*671 net560
*672 net561
*673 net562
*674 net563
*675 net564
*676 net565
*677 net566
*678 net567
*679 net568
*680 net569
*681 net57
*682 net570
*683 net571
*684 net572
*685 net573
*686 net574
*687 net575
*688 net576
*689 net577
*690 net578
*691 net579
*692 net58
*693 net580
*694 net581
*695 net582
*696 net583
*697 net584
*698 net585
*699 net586
*700 net587
*701 net588
*702 net589
*703 net59
*704 net590
*705 net591
*706 net592
*707 net593
*708 net594
*709 net595
*710 net596
*711 net597
*712 net598
*713 net599
*714 net6
*715 net60
*716 net600
*717 net601
*718 net602
*719 net603
*720 net604
*721 net605
*722 net606
*723 net607
*724 net608
*725 net609
*726 net61
*727 net610
*728 net611
*729 net612
*730 net613
*731 net614
*732 net615
*733 net616
*734 net617
*735 net618
*736 net619
*737 net62
*738 net620
*739 net621
*740 net622
*741 net623
*742 net624
*743 net625
*744 net626
*745 net627
*746 net628
*747 net629
*748 net63
*749 net630
*750 net631
*751 net632
*752 net633
*753 net634
*754 net635
*755 net636
*756 net637
*757 net638
*758 net639
*759 net64
*760 net640
*761 net641
*762 net642
*763 net643
*764 net644
*765 net645
*766 net646
*767 net647
*768 net648
*769 net649
*770 net65
*771 net650
*772 net651
*773 net652
*774 net653
*775 net654
*776 net655
*777 net656
*778 net657
*779 net658
*780 net659
*781 net66
*782 net660
*783 net661
*784 net662
*785 net663
*786 net664
*787 net665
*788 net666
*789 net667
*790 net668
*791 net669
*792 net67
*793 net670
*794 net671
*795 net672
*796 net673
*797 net674
*798 net675
*799 net676
*800 net677
*801 net678
*802 net679
*803 net68
*804 net680
*805 net681
*806 net682
*807 net683
*808 net684
*809 net685
*810 net686
*811 net687
*812 net688
*813 net689
*814 net69
*815 net690
*816 net691
*817 net692
*818 net693
*819 net694
*820 net695
*821 net696
*822 net697
*823 net698
*824 net699
*825 net7
*826 net70
*827 net700
*828 net701
*829 net702
*830 net703
*831 net704
*832 net705
*833 net706
*834 net707
*835 net708
*836 net709
*837 net71
*838 net710
*839 net711
*840 net712
*841 net713
*842 net714
*843 net715
*844 net716
*845 net717
*846 net718
*847 net719
*848 net72
*849 net720
*850 net721
*851 net722
*852 net723
*853 net724
*854 net725
*855 net726
*856 net727
*857 net728
*858 net729
*859 net73
*860 net730
*861 net731
*862 net732
*863 net733
*864 net734
*865 net735
*866 net736
*867 net737
*868 net738
*869 net739
*870 net74
*871 net740
*872 net741
*873 net742
*874 net743
*875 net744
*876 net745
*877 net746
*878 net747
*879 net748
*880 net749
*881 net75
*882 net750
*883 net751
*884 net752
*885 net753
*886 net754
*887 net755
*888 net756
*889 net757
*890 net758
*891 net759
*892 net76
*893 net760
*894 net761
*895 net762
*896 net763
*897 net764
*898 net765
*899 net766
*900 net767
*901 net768
*902 net769
*903 net77
*904 net770
*905 net771
*906 net772
*907 net773
*908 net774
*909 net775
*910 net776
*911 net777
*912 net778
*913 net779
*914 net78
*915 net780
*916 net781
*917 net782
*918 net783
*919 net784
*920 net785
*921 net786
*922 net787
*923 net788
*924 net789
*925 net79
*926 net790
*927 net791
*928 net792
*929 net793
*930 net794
*931 net795
*932 net796
*933 net797
*934 net798
*935 net799
*936 net8
*937 net80
*938 net800
*939 net801
*940 net802
*941 net803
*942 net804
*943 net805
*944 net806
*945 net807
*946 net808
*947 net809
*948 net81
*949 net810
*950 net811
*951 net812
*952 net813
*953 net814
*954 net815
*955 net816
*956 net817
*957 net818
*958 net819
*959 net82
*960 net820
*961 net821
*962 net822
*963 net823
*964 net824
*965 net825
*966 net826
*967 net827
*968 net828
*969 net829
*970 net83
*971 net830
*972 net831
*973 net832
*974 net833
*975 net834
*976 net835
*977 net836
*978 net837
*979 net838
*980 net839
*981 net84
*982 net840
*983 net841
*984 net842
*985 net843
*986 net844
*987 net845
*988 net846
*989 net847
*990 net848
*991 net849
*992 net85
*993 net850
*994 net851
*995 net852
*996 net853
*997 net854
*998 net855
*999 net856
*1000 net857
*1001 net858
*1002 net859
*1003 net86
*1004 net860
*1005 net861
*1006 net862
*1007 net863
*1008 net864
*1009 net865
*1010 net866
*1011 net867
*1012 net868
*1013 net869
*1014 net87
*1015 net870
*1016 net871
*1017 net872
*1018 net873
*1019 net874
*1020 net875
*1021 net88
*1022 net89
*1023 net9
*1024 net90
*1025 net91
*1026 net92
*1027 net93
*1028 net94
*1029 net95
*1030 net96
*1031 net97
*1032 net98
*1033 net99
*1034 ANTENNA_1
*1035 ANTENNA_2
*1036 ANTENNA_3
*1037 ANTENNA_c101_X
*1038 ANTENNA_c103_B
*1039 ANTENNA_c109_C1
*1040 ANTENNA_c109_X
*1041 ANTENNA_c111_B
*1042 ANTENNA_c113_A
*1043 ANTENNA_c114_B
*1044 ANTENNA_c117_X
*1045 ANTENNA_c118_B
*1046 ANTENNA_c119_B
*1047 ANTENNA_c125_B
*1048 ANTENNA_c127_A
*1049 ANTENNA_c129_C
*1050 ANTENNA_c130_B
*1051 ANTENNA_c132_A
*1052 ANTENNA_c132_X
*1053 ANTENNA_c134_B
*1054 ANTENNA_c135_B
*1055 ANTENNA_c137_B
*1056 ANTENNA_c139_C
*1057 ANTENNA_c141_X
*1058 ANTENNA_c142_B
*1059 ANTENNA_c145_A
*1060 ANTENNA_c145_X
*1061 ANTENNA_c146_X
*1062 ANTENNA_c149_A
*1063 ANTENNA_c149_B
*1064 ANTENNA_c151_B
*1065 ANTENNA_c152_C
*1066 ANTENNA_c152_X
*1067 ANTENNA_c155_A
*1068 ANTENNA_c155_X
*1069 ANTENNA_c157_X
*1070 ANTENNA_c158_B
*1071 ANTENNA_c159_B
*1072 ANTENNA_c161_X
*1073 ANTENNA_c163_B
*1074 ANTENNA_c163_X
*1075 ANTENNA_c164_A
*1076 ANTENNA_c164_X
*1077 ANTENNA_c165_B
*1078 ANTENNA_c165_X
*1079 ANTENNA_c166_B
*1080 ANTENNA_c166_X
*1081 ANTENNA_c167_B
*1082 ANTENNA_c168_B
*1083 ANTENNA_c168_C
*1084 ANTENNA_c168_X
*1085 ANTENNA_c169_A
*1086 ANTENNA_c170_B
*1087 ANTENNA_c171_A
*1088 ANTENNA_c171_X
*1089 ANTENNA_c172_B
*1090 ANTENNA_c173_A0
*1091 ANTENNA_c173_A1
*1092 ANTENNA_c173_S0
*1093 ANTENNA_c174_B
*1094 ANTENNA_c174_X
*1095 ANTENNA_c175_A
*1096 ANTENNA_c176_B
*1097 ANTENNA_c176_X
*1098 ANTENNA_c177_B
*1099 ANTENNA_c177_X
*1100 ANTENNA_c178_B
*1101 ANTENNA_c179_X
*1102 ANTENNA_c181_X
*1103 ANTENNA_c182_C
*1104 ANTENNA_c183_B
*1105 ANTENNA_c183_X
*1106 ANTENNA_c184_A
*1107 ANTENNA_c185_A
*1108 ANTENNA_c185_B
*1109 ANTENNA_c186_B
*1110 ANTENNA_c189_X
*1111 ANTENNA_c190_A
*1112 ANTENNA_c192_B
*1113 ANTENNA_c193_C
*1114 ANTENNA_c193_X
*1115 ANTENNA_c195_X
*1116 ANTENNA_c196_B
*1117 ANTENNA_c197_B1
*1118 ANTENNA_c197_D1
*1119 ANTENNA_c197_X
*1120 ANTENNA_c198_A
*1121 ANTENNA_c198_B
*1122 ANTENNA_c198_X
*1123 ANTENNA_c199_A
*1124 ANTENNA_c200_B
*1125 ANTENNA_c200_X
*1126 ANTENNA_c202_B
*1127 ANTENNA_c204_B
*1128 ANTENNA_c206_B
*1129 ANTENNA_c206_X
*1130 ANTENNA_c207_X
*1131 ANTENNA_c208_A
*1132 ANTENNA_c213_D
*1133 ANTENNA_c213_SCD
*1134 ANTENNA_c216_D1
*1135 ANTENNA_c216_X
*1136 ANTENNA_c217_D
*1137 ANTENNA_c217_SET_B
*1138 ANTENNA_c218_A2
*1139 ANTENNA_c218_C1
*1140 ANTENNA_c218_D1
*1141 ANTENNA_c219_X
*1142 ANTENNA_c222_A
*1143 ANTENNA_c225_B
*1144 ANTENNA_c225_X
*1145 ANTENNA_c226_B
*1146 ANTENNA_c227_C_N
*1147 ANTENNA_c227_D_N
*1148 ANTENNA_c228_B
*1149 ANTENNA_c229_B
*1150 ANTENNA_c234_B
*1151 ANTENNA_c235_X
*1152 ANTENNA_c238_SCE
*1153 ANTENNA_c241_B
*1154 ANTENNA_c241_C
*1155 ANTENNA_c244_B
*1156 ANTENNA_c245_A
*1157 ANTENNA_c246_X
*1158 ANTENNA_c247_X
*1159 ANTENNA_c248_B
*1160 ANTENNA_c251_A1
*1161 ANTENNA_c251_A3
*1162 ANTENNA_c251_S0
*1163 ANTENNA_c253_A0
*1164 ANTENNA_c253_A2
*1165 ANTENNA_c255_B
*1166 ANTENNA_c257_B
*1167 ANTENNA_c257_X
*1168 ANTENNA_c258_B
*1169 ANTENNA_c261_B
*1170 ANTENNA_c262_SCE
*1171 ANTENNA_c262_SET_B
*1172 ANTENNA_c263_A3
*1173 ANTENNA_c263_S0
*1174 ANTENNA_c263_S1
*1175 ANTENNA_c265_B
*1176 ANTENNA_c265_X
*1177 ANTENNA_c267_B
*1178 ANTENNA_c269_X
*1179 ANTENNA_c270_B
*1180 ANTENNA_c270_X
*1181 ANTENNA_c271_A
*1182 ANTENNA_c273_X
*1183 ANTENNA_c274_B
*1184 ANTENNA_c275_C
*1185 ANTENNA_c276_B
*1186 ANTENNA_c277_A
*1187 ANTENNA_c277_D_N
*1188 ANTENNA_c277_X
*1189 ANTENNA_c278_B
*1190 ANTENNA_c278_C
*1191 ANTENNA_c283_C
*1192 ANTENNA_c284_X
*1193 ANTENNA_c285_C_N
*1194 ANTENNA_c287_B
*1195 ANTENNA_c288_B
*1196 ANTENNA_c289_B
*1197 ANTENNA_c290_B
*1198 ANTENNA_c291_B
*1199 ANTENNA_c291_X
*1200 ANTENNA_c292_B
*1201 ANTENNA_c293_B
*1202 ANTENNA_c294_B
*1203 ANTENNA_c295_X
*1204 ANTENNA_c296_A
*1205 ANTENNA_c296_B
*1206 ANTENNA_c296_C
*1207 ANTENNA_c297_B
*1208 ANTENNA_c297_C
*1209 ANTENNA_c298_B
*1210 ANTENNA_c298_C
*1211 ANTENNA_c299_A
*1212 ANTENNA_c300_B
*1213 ANTENNA_c300_X
*1214 ANTENNA_c301_X
*1215 ANTENNA_c302_SCD
*1216 ANTENNA_c302_SCE
*1217 ANTENNA_c302_SET_B
*1218 ANTENNA_c303_A
*1219 ANTENNA_c305_C
*1220 ANTENNA_c306_B1
*1221 ANTENNA_c306_D1
*1222 ANTENNA_c306_X
*1223 ANTENNA_c307_X
*1224 ANTENNA_c309_B
*1225 ANTENNA_c311_A
*1226 ANTENNA_c311_B
*1227 ANTENNA_c312_A
*1228 ANTENNA_c313_B
*1229 ANTENNA_c314_A
*1230 ANTENNA_c314_B
*1231 ANTENNA_c314_C
*1232 ANTENNA_c315_C
*1233 ANTENNA_c315_X
*1234 ANTENNA_c316_SCD
*1235 ANTENNA_c321_Q
*1236 ANTENNA_c322_SCE
*1237 ANTENNA_c323_X
*1238 ANTENNA_c325_A2
*1239 ANTENNA_c325_B1
*1240 ANTENNA_c325_D1
*1241 ANTENNA_c329_A2
*1242 ANTENNA_c329_X
*1243 ANTENNA_c331_A
*1244 ANTENNA_c332_X
*1245 ANTENNA_c333_A
*1246 ANTENNA_c334_B1
*1247 ANTENNA_c334_C1
*1248 ANTENNA_c334_D1
*1249 ANTENNA_c336_A
*1250 ANTENNA_c336_B
*1251 ANTENNA_c336_C
*1252 ANTENNA_c337_X
*1253 ANTENNA_c338_RESET_B
*1254 ANTENNA_c339_B
*1255 ANTENNA_c339_X
*1256 ANTENNA_c340_A
*1257 ANTENNA_c340_X
*1258 ANTENNA_c342_A
*1259 ANTENNA_c342_B
*1260 ANTENNA_c343_B
*1261 ANTENNA_c345_B
*1262 ANTENNA_c345_C
*1263 ANTENNA_c346_B
*1264 ANTENNA_c348_B
*1265 ANTENNA_c349_Q_N
*1266 ANTENNA_c350_S0
*1267 ANTENNA_c351_SCE
*1268 ANTENNA_c352_B
*1269 ANTENNA_c352_X
*1270 ANTENNA_c353_A
*1271 ANTENNA_c353_B
*1272 ANTENNA_c354_A
*1273 ANTENNA_c354_X
*1274 ANTENNA_c355_B
*1275 ANTENNA_c357_B
*1276 ANTENNA_c358_B
*1277 ANTENNA_c358_X
*1278 ANTENNA_c359_B
*1279 ANTENNA_c360_A
*1280 ANTENNA_c361_RESET_B
*1281 ANTENNA_c361_SCD
*1282 ANTENNA_c363_C
*1283 ANTENNA_c363_X
*1284 ANTENNA_c364_B
*1285 ANTENNA_c367_A0
*1286 ANTENNA_c367_A1
*1287 ANTENNA_c367_A3
*1288 ANTENNA_c367_S0
*1289 ANTENNA_c367_S1
*1290 ANTENNA_c369_B
*1291 ANTENNA_c369_C
*1292 ANTENNA_c370_RESET_B
*1293 ANTENNA_c371_A0
*1294 ANTENNA_c371_A3
*1295 ANTENNA_c371_S0
*1296 ANTENNA_c372_B
*1297 ANTENNA_c373_A2
*1298 ANTENNA_c392_A2
*1299 ANTENNA_c392_S0
*1300 ANTENNA_c393_A1
*1301 ANTENNA_c393_A2
*1302 ANTENNA_c393_A3
*1303 ANTENNA_c394_RESET_B
*1304 ANTENNA_c394_SCD
*1305 ANTENNA_c395_A1
*1306 ANTENNA_c398_B
*1307 ANTENNA_c400_X
*1308 ANTENNA_c407_X
*1309 ANTENNA_c408_X
*1310 ANTENNA_c409_B
*1311 ANTENNA_c409_X
*1312 ANTENNA_c410_B
*1313 ANTENNA_c410_X
*1314 ANTENNA_c411_A
*1315 ANTENNA_c411_B
*1316 ANTENNA_c418_RESET_B
*1317 ANTENNA_c418_SCE
*1318 ANTENNA_c420_B
*1319 ANTENNA_c420_C
*1320 ANTENNA_c424_C
*1321 ANTENNA_c425_X
*1322 ANTENNA_c428_X
*1323 ANTENNA_c429_SCE
*1324 ANTENNA_c432_A1
*1325 ANTENNA_c434_CLK
*1326 ANTENNA_c434_SCD
*1327 ANTENNA_c434_SCE
*1328 ANTENNA_c436_A2
*1329 ANTENNA_c436_S1
*1330 ANTENNA_c438_C
*1331 ANTENNA_c439_A1
*1332 ANTENNA_c439_S0
*1333 ANTENNA_c439_X
*1334 ANTENNA_c441_B
*1335 ANTENNA_c442_A1
*1336 ANTENNA_c442_A2
*1337 ANTENNA_c442_C1
*1338 ANTENNA_c444_B
*1339 ANTENNA_c445_SCD
*1340 ANTENNA_c445_SCE
*1341 ANTENNA_c447_B
*1342 ANTENNA_c447_C
*1343 ANTENNA_c447_X
*1344 ANTENNA_c448_C
*1345 ANTENNA_c449_CLK
*1346 ANTENNA_c449_SCE
*1347 ANTENNA_c452_X
*1348 ANTENNA_c453_C
*1349 ANTENNA_c453_X
*1350 ANTENNA_c454_RESET_B
*1351 ANTENNA_c454_SET_B
*1352 ANTENNA_c455_SCD
*1353 ANTENNA_c455_SCE
*1354 ANTENNA_c456_A
*1355 ANTENNA_c457_RESET_B
*1356 ANTENNA_c457_SET_B
*1357 ANTENNA_c458_X
*1358 ANTENNA_c459_A0
*1359 ANTENNA_c459_A3
*1360 ANTENNA_c460_A0
*1361 ANTENNA_c460_A2
*1362 ANTENNA_c460_A3
*1363 ANTENNA_c461_A0
*1364 ANTENNA_c461_A1
*1365 ANTENNA_c461_A3
*1366 ANTENNA_c463_A
*1367 ANTENNA_c466_X
*1368 ANTENNA_c467_B
*1369 ANTENNA_c467_C
*1370 ANTENNA_c468_B
*1371 ANTENNA_c469_B
*1372 ANTENNA_c470_C
*1373 ANTENNA_c471_B
*1374 ANTENNA_c471_C_N
*1375 ANTENNA_c471_D_N
*1376 ANTENNA_c471_X
*1377 ANTENNA_c472_X
*1378 ANTENNA_c473_X
*1379 ANTENNA_c474_B
*1380 ANTENNA_c474_C
*1381 ANTENNA_c475_RESET_B
*1382 ANTENNA_c475_SCE
*1383 ANTENNA_c476_SCD
*1384 ANTENNA_c477_C_N
*1385 ANTENNA_c477_D_N
*1386 ANTENNA_c478_X
*1387 ANTENNA_c479_A1
*1388 ANTENNA_c479_S1
*1389 ANTENNA_c481_SCE
*1390 ANTENNA_c483_A1
*1391 ANTENNA_c483_A3
*1392 ANTENNA_c483_S0
*1393 ANTENNA_c484_X
*1394 ANTENNA_c485_B
*1395 ANTENNA_c485_C
*1396 ANTENNA_c486_A
*1397 ANTENNA_c487_B
*1398 ANTENNA_c487_C
*1399 ANTENNA_c488_SCD
*1400 ANTENNA_c489_SCD
*1401 ANTENNA_c489_SCE
*1402 ANTENNA_c489_SET_B
*1403 ANTENNA_c490_C
*1404 ANTENNA_c491_B
*1405 ANTENNA_c492_SCD
*1406 ANTENNA_c492_SCE
*1407 ANTENNA_c493_Q
*1408 ANTENNA_c494_D
*1409 ANTENNA_c494_SCD
*1410 ANTENNA_c494_SCE
*1411 ANTENNA_c497_C
*1412 ANTENNA_c498_D1
*1413 ANTENNA_c499_A
*1414 ANTENNA_c500_A0
*1415 ANTENNA_c500_A1
*1416 ANTENNA_c500_A3
*1417 ANTENNA_c500_S1
*1418 ANTENNA_c502_C
*1419 ANTENNA_c503_A1
*1420 ANTENNA_c503_A3
*1421 ANTENNA_c503_S0
*1422 ANTENNA_c503_S1
*1423 ANTENNA_c504_B
*1424 ANTENNA_c504_C
*1425 ANTENNA_c505_B
*1426 ANTENNA_c505_C
*1427 ANTENNA_c529_B
*1428 ANTENNA_c530_B
*1429 ANTENNA_c531_B
*1430 ANTENNA_c532_B
*1431 ANTENNA_c535_CLK_N
*1432 ANTENNA_c536_CLK
*1433 ANTENNA_c538_CLK_N
*1434 ANTENNA_c540_CLK
*1435 ANTENNA_c540_Q
*1436 ANTENNA_c541_CLK
*1437 ANTENNA_c542_CLK_N
*1438 ANTENNA_c544_CLK
*1439 ANTENNA_c547_X
*1440 ANTENNA_c549_CLK
*1441 ANTENNA_c552_A
*1442 ANTENNA_c554_B
*1443 ANTENNA_c558_B
*1444 ANTENNA_c559_C
*1445 ANTENNA_c560_B
*1446 ANTENNA_c561_CLK
*1447 ANTENNA_c561_SCE
*1448 ANTENNA_c562_A
*1449 ANTENNA_c562_X
*1450 ANTENNA_c564_B
*1451 ANTENNA_c564_X
*1452 ANTENNA_c565_B
*1453 ANTENNA_c566_A3
*1454 ANTENNA_c568_A2
*1455 ANTENNA_c568_C1
*1456 ANTENNA_c568_D1
*1457 ANTENNA_c569_A2
*1458 ANTENNA_c569_A3
*1459 ANTENNA_c570_A1
*1460 ANTENNA_c570_S0
*1461 ANTENNA_c572_A
*1462 ANTENNA_c572_B
*1463 ANTENNA_c573_A
*1464 ANTENNA_c574_A1
*1465 ANTENNA_c574_A2
*1466 ANTENNA_c574_B1
*1467 ANTENNA_c574_C1
*1468 ANTENNA_c574_D1
*1469 ANTENNA_c574_X
*1470 ANTENNA_c575_A
*1471 ANTENNA_c578_A
*1472 ANTENNA_c579_B
*1473 ANTENNA_c579_C
*1474 ANTENNA_c585_A2
*1475 ANTENNA_c585_S0
*1476 ANTENNA_c585_S1
*1477 ANTENNA_c587_X
*1478 ANTENNA_c588_A
*1479 ANTENNA_c589_A
*1480 ANTENNA_c590_C
*1481 ANTENNA_c592_SCD
*1482 ANTENNA_c596_C
*1483 ANTENNA_c597_A
*1484 ANTENNA_c597_C
*1485 ANTENNA_c597_X
*1486 ANTENNA_c598_A
*1487 ANTENNA_c598_B
*1488 ANTENNA_c598_C
*1489 ANTENNA_c599_B
*1490 ANTENNA_c600_SCE
*1491 ANTENNA_c600_SET_B
*1492 ANTENNA_c601_A
*1493 ANTENNA_c601_B
*1494 ANTENNA_c602_C
*1495 ANTENNA_c603_B
*1496 ANTENNA_c603_C
*1497 ANTENNA_c604_B
*1498 ANTENNA_c605_B
*1499 ANTENNA_c605_C
*1500 ANTENNA_c605_X
*1501 ANTENNA_c606_C
*1502 ANTENNA_c607_A
*1503 ANTENNA_c607_B
*1504 ANTENNA_c608_A
*1505 ANTENNA_c609_B
*1506 ANTENNA_c610_A
*1507 ANTENNA_c610_C
*1508 ANTENNA_c611_A
*1509 ANTENNA_c611_C
*1510 ANTENNA_c612_C_N
*1511 ANTENNA_c612_D_N
*1512 ANTENNA_c613_A1
*1513 ANTENNA_c613_B1
*1514 ANTENNA_c613_C1
*1515 ANTENNA_c613_D1
*1516 ANTENNA_c614_SCD
*1517 ANTENNA_c614_SET_B
*1518 ANTENNA_c615_SCE
*1519 ANTENNA_c615_SET_B
*1520 ANTENNA_c616_D
*1521 ANTENNA_c616_SCE
*1522 ANTENNA_c616_SET_B
*1523 ANTENNA_c617_D
*1524 ANTENNA_c617_SCE
*1525 ANTENNA_c619_SCD
*1526 ANTENNA_c619_SET_B
*1527 ANTENNA_c620_A
*1528 ANTENNA_c620_B
*1529 ANTENNA_c620_C
*1530 ANTENNA_c622_SCD
*1531 ANTENNA_c622_SCE
*1532 ANTENNA_c623_B
*1533 ANTENNA_c623_C
*1534 ANTENNA_c625_A1
*1535 ANTENNA_c625_A2
*1536 ANTENNA_c625_A3
*1537 ANTENNA_c625_S0
*1538 ANTENNA_c625_S1
*1539 ANTENNA_c626_SCD
*1540 ANTENNA_c626_SCE
*1541 ANTENNA_c626_SET_B
*1542 ANTENNA_c627_B1
*1543 ANTENNA_c627_C1
*1544 ANTENNA_c627_D1
*1545 ANTENNA_c628_C_N
*1546 ANTENNA_c628_D_N
*1547 ANTENNA_c629_SCD
*1548 ANTENNA_c629_SCE
*1549 ANTENNA_c62_A1
*1550 ANTENNA_c630_A1
*1551 ANTENNA_c630_A2
*1552 ANTENNA_c630_S1
*1553 ANTENNA_c632_D
*1554 ANTENNA_c632_RESET_B
*1555 ANTENNA_c632_SET_B
*1556 ANTENNA_c633_A
*1557 ANTENNA_c634_SET_B
*1558 ANTENNA_c635_B1
*1559 ANTENNA_c635_C1
*1560 ANTENNA_c637_SET_B
*1561 ANTENNA_c63_S1
*1562 ANTENNA_c64_S0
*1563 ANTENNA_c64_X
*1564 ANTENNA_c65_A1
*1565 ANTENNA_c65_A3
*1566 ANTENNA_c65_S0
*1567 ANTENNA_c65_S1
*1568 ANTENNA_c665_X
*1569 ANTENNA_c666_X
*1570 ANTENNA_c668_B
*1571 ANTENNA_c669_B
*1572 ANTENNA_c669_X
*1573 ANTENNA_c66_A
*1574 ANTENNA_c670_SET_B
*1575 ANTENNA_c671_SET_B
*1576 ANTENNA_c672_SET_B
*1577 ANTENNA_c676_B
*1578 ANTENNA_c677_B
*1579 ANTENNA_c678_A
*1580 ANTENNA_c67_A
*1581 ANTENNA_c681_C
*1582 ANTENNA_c689_A
*1583 ANTENNA_c689_B
*1584 ANTENNA_c68_A
*1585 ANTENNA_c68_B
*1586 ANTENNA_c695_B
*1587 ANTENNA_c697_D
*1588 ANTENNA_c69_A
*1589 ANTENNA_c701_D_N
*1590 ANTENNA_c702_Q
*1591 ANTENNA_c705_A
*1592 ANTENNA_c705_B
*1593 ANTENNA_c705_C_N
*1594 ANTENNA_c706_B
*1595 ANTENNA_c708_A
*1596 ANTENNA_c709_A
*1597 ANTENNA_c70_B
*1598 ANTENNA_c711_B
*1599 ANTENNA_c712_B
*1600 ANTENNA_c714_D_N
*1601 ANTENNA_c715_B
*1602 ANTENNA_c717_C
*1603 ANTENNA_c718_A
*1604 ANTENNA_c718_B
*1605 ANTENNA_c718_D_N
*1606 ANTENNA_c719_B
*1607 ANTENNA_c723_A
*1608 ANTENNA_c723_B
*1609 ANTENNA_c726_SCD
*1610 ANTENNA_c726_SCE
*1611 ANTENNA_c730_D
*1612 ANTENNA_c730_SCD
*1613 ANTENNA_c730_SCE
*1614 ANTENNA_c732_C
*1615 ANTENNA_c733_A
*1616 ANTENNA_c733_C
*1617 ANTENNA_c735_A
*1618 ANTENNA_c736_C
*1619 ANTENNA_c737_SET_B
*1620 ANTENNA_c739_B
*1621 ANTENNA_c742_SET_B
*1622 ANTENNA_c743_A2
*1623 ANTENNA_c743_S0
*1624 ANTENNA_c744_A
*1625 ANTENNA_c745_D1
*1626 ANTENNA_c747_SCE
*1627 ANTENNA_c748_A2
*1628 ANTENNA_c748_A3
*1629 ANTENNA_c748_S0
*1630 ANTENNA_c748_S1
*1631 ANTENNA_c749_A0
*1632 ANTENNA_c749_A1
*1633 ANTENNA_c749_A3
*1634 ANTENNA_c749_S0
*1635 ANTENNA_c749_S1
*1636 ANTENNA_c750_A0
*1637 ANTENNA_c750_A1
*1638 ANTENNA_c750_A3
*1639 ANTENNA_c751_A2
*1640 ANTENNA_c751_S1
*1641 ANTENNA_c752_A1
*1642 ANTENNA_c752_A3
*1643 ANTENNA_c753_A0
*1644 ANTENNA_c753_A1
*1645 ANTENNA_c753_A2
*1646 ANTENNA_c753_A3
*1647 ANTENNA_c754_A0
*1648 ANTENNA_c754_A1
*1649 ANTENNA_c754_A2
*1650 ANTENNA_c755_A0
*1651 ANTENNA_c756_A1
*1652 ANTENNA_c756_A2
*1653 ANTENNA_c77_X
*1654 ANTENNA_c78_B
*1655 ANTENNA_c82_B
*1656 ANTENNA_c87_C1
*1657 ANTENNA_c97_C
*1658 ANTENNA_c98_B
*1659 ANTENNA_clkbuf_0_clk_A
*1660 ANTENNA_clkbuf_0_clk_X
*1661 ANTENNA_clkbuf_4_0_0_clk_A
*1662 ANTENNA_clkbuf_4_10_0_clk_A
*1663 ANTENNA_clkbuf_4_11_0_clk_A
*1664 ANTENNA_clkbuf_4_12_0_clk_A
*1665 ANTENNA_clkbuf_4_13_0_clk_A
*1666 ANTENNA_clkbuf_4_14_0_clk_A
*1667 ANTENNA_clkbuf_4_15_0_clk_A
*1668 ANTENNA_clkbuf_4_1_0_clk_A
*1669 ANTENNA_clkbuf_4_1_0_clk_X
*1670 ANTENNA_clkbuf_4_2_0_clk_A
*1671 ANTENNA_clkbuf_4_3_0_clk_A
*1672 ANTENNA_clkbuf_4_4_0_clk_A
*1673 ANTENNA_clkbuf_4_4_0_clk_X
*1674 ANTENNA_clkbuf_4_5_0_clk_A
*1675 ANTENNA_clkbuf_4_6_0_clk_A
*1676 ANTENNA_clkbuf_4_7_0_clk_A
*1677 ANTENNA_clkbuf_4_8_0_clk_A
*1678 ANTENNA_clkbuf_4_9_0_clk_A
*1679 ANTENNA_fanout120_X
*1680 ANTENNA_fanout121_X
*1681 ANTENNA_fanout122_A
*1682 ANTENNA_fanout122_X
*1683 ANTENNA_fanout123_A
*1684 ANTENNA_fanout123_X
*1685 ANTENNA_hold36_A
*1686 ANTENNA_hold41_A
*1687 ANTENNA_hold59_X
*1688 ANTENNA_hold72_A
*1689 ANTENNA_hold72_X
*1690 ANTENNA_input10_A
*1691 ANTENNA_input10_X
*1692 ANTENNA_input11_A
*1693 ANTENNA_input12_A
*1694 ANTENNA_input13_A
*1695 ANTENNA_input13_X
*1696 ANTENNA_input14_A
*1697 ANTENNA_input14_X
*1698 ANTENNA_input15_A
*1699 ANTENNA_input16_A
*1700 ANTENNA_input16_X
*1701 ANTENNA_input17_A
*1702 ANTENNA_input18_A
*1703 ANTENNA_input19_A
*1704 ANTENNA_input19_X
*1705 ANTENNA_input1_A
*1706 ANTENNA_input20_A
*1707 ANTENNA_input21_A
*1708 ANTENNA_input22_A
*1709 ANTENNA_input23_A
*1710 ANTENNA_input24_A
*1711 ANTENNA_input24_X
*1712 ANTENNA_input25_A
*1713 ANTENNA_input26_A
*1714 ANTENNA_input27_A
*1715 ANTENNA_input28_A
*1716 ANTENNA_input29_A
*1717 ANTENNA_input2_A
*1718 ANTENNA_input2_X
*1719 ANTENNA_input30_A
*1720 ANTENNA_input30_X
*1721 ANTENNA_input31_A
*1722 ANTENNA_input32_A
*1723 ANTENNA_input32_X
*1724 ANTENNA_input33_A
*1725 ANTENNA_input33_X
*1726 ANTENNA_input34_A
*1727 ANTENNA_input35_A
*1728 ANTENNA_input36_A
*1729 ANTENNA_input36_X
*1730 ANTENNA_input37_A
*1731 ANTENNA_input38_A
*1732 ANTENNA_input39_A
*1733 ANTENNA_input3_A
*1734 ANTENNA_input40_A
*1735 ANTENNA_input41_A
*1736 ANTENNA_input42_A
*1737 ANTENNA_input43_A
*1738 ANTENNA_input43_X
*1739 ANTENNA_input44_A
*1740 ANTENNA_input45_A
*1741 ANTENNA_input45_X
*1742 ANTENNA_input46_A
*1743 ANTENNA_input46_X
*1744 ANTENNA_input47_A
*1745 ANTENNA_input48_A
*1746 ANTENNA_input49_A
*1747 ANTENNA_input49_X
*1748 ANTENNA_input4_A
*1749 ANTENNA_input50_A
*1750 ANTENNA_input51_A
*1751 ANTENNA_input52_A
*1752 ANTENNA_input52_X
*1753 ANTENNA_input53_A
*1754 ANTENNA_input53_X
*1755 ANTENNA_input54_A
*1756 ANTENNA_input55_A
*1757 ANTENNA_input56_A
*1758 ANTENNA_input57_A
*1759 ANTENNA_input57_X
*1760 ANTENNA_input58_A
*1761 ANTENNA_input59_A
*1762 ANTENNA_input5_A
*1763 ANTENNA_input60_A
*1764 ANTENNA_input61_A
*1765 ANTENNA_input62_A
*1766 ANTENNA_input62_X
*1767 ANTENNA_input6_A
*1768 ANTENNA_input6_X
*1769 ANTENNA_input7_A
*1770 ANTENNA_input7_X
*1771 ANTENNA_input8_A
*1772 ANTENNA_input9_A
*1773 ANTENNA_input9_X
*1774 ANTENNA_merge757_CLK
*1775 ANTENNA_merge757_SCD
*1776 ANTENNA_merge757_SCE
*1777 ANTENNA_merge758_SCD
*1778 ANTENNA_merge758_SCE
*1779 ANTENNA_merge759_Q_N
*1780 ANTENNA_merge759_RESET_B
*1781 ANTENNA_merge759_SCD
*1782 ANTENNA_merge759_SCE
*1783 ANTENNA_merge760_D
*1784 ANTENNA_merge760_RESET_B
*1785 ANTENNA_merge760_SCE
*1786 ANTENNA_merge760_SET_B
*1787 ANTENNA_merge763_D
*1788 ANTENNA_merge763_RESET_B
*1789 ANTENNA_merge763_SCE
*1790 ANTENNA_merge765_D
*1791 ANTENNA_merge765_RESET_B
*1792 ANTENNA_merge766_D
*1793 ANTENNA_merge767_RESET_B
*1794 ANTENNA_merge767_SCE
*1795 ANTENNA_merge768_RESET_B
*1796 ANTENNA_merge769_SCD
*1797 ANTENNA_merge769_SCE
*1798 ANTENNA_merge770_S0
*1799 ANTENNA_merge771_SCE
*1800 ANTENNA_merge772_CLK
*1801 ANTENNA_merge772_SCD
*1802 ANTENNA_merge773_A2
*1803 ANTENNA_merge773_A3
*1804 ANTENNA_merge773_S1