*SPEF "ieee 1481-1999"
*DESIGN "netlist_0"
*DATE "13:00:59 Friday August 16, 2024"
*VENDOR "The OpenROAD Project"
*PROGRAM "OpenROAD"
*VERSION "d423155d69de7f683a23f6916ead418a615ad4ad"
*DESIGN_FLOW "NAME_SCOPE LOCAL" "PIN_CAP NONE"
*DIVIDER /
*DELIMITER :
*BUS_DELIMITER []
*T_UNIT 1 NS
*C_UNIT 1 PF
*R_UNIT 1 OHM
*L_UNIT 1 HENRY

*NAME_MAP
*3 clk
*4 in0
*5 in1
*6 in10
*7 in11
*8 in12
*9 in13
*10 in14
*11 in15
*12 in16
*13 in17
*14 in18
*15 in19
*16 in2
*17 in20
*18 in21
*19 in22
*20 in23
*21 in24
*22 in25
*23 in26
*24 in27
*25 in28
*26 in29
*27 in3
*28 in30
*29 in31
*30 in32
*31 in33
*32 in34
*33 in35
*34 in36
*35 in37
*36 in38
*37 in39
*38 in4
*39 in40
*40 in41
*41 in42
*42 in43
*43 in44
*44 in45
*45 in46
*46 in47
*47 in48
*48 in49
*49 in5
*50 in50
*51 in51
*52 in52
*53 in53
*54 in54
*55 in55
*56 in56
*57 in57
*58 in58
*59 in59
*60 in6
*61 in60
*62 in61
*63 in62
*64 in63
*65 in64
*66 in65
*67 in66
*68 in67
*69 in68
*70 in69
*71 in7
*72 in70
*73 in71
*74 in72
*75 in73
*76 in74
*77 in75
*78 in76
*79 in77
*80 in78
*81 in79
*82 in8
*83 in80
*84 in81
*85 in82
*86 in83
*87 in84
*88 in85
*89 in86
*90 in87
*91 in88
*92 in89
*93 in9
*94 in90
*95 in91
*96 in92
*97 in93
*98 in94
*99 in95
*100 in96
*101 in97
*102 in98
*103 in99
*104 out0
*105 out1
*106 out10
*107 out11
*108 out12
*109 out13
*110 out14
*111 out15
*112 out16
*113 out17
*114 out18
*115 out19
*116 out2
*117 out20
*118 out21
*119 out22
*120 out23
*121 out24
*122 out25
*123 out26
*124 out27
*125 out28
*126 out29
*127 out3
*128 out30
*129 out31
*130 out32
*131 out33
*132 out34
*133 out35
*134 out36
*135 out37
*136 out38
*137 out39
*138 out4
*139 out40
*140 out41
*141 out42
*142 out43
*143 out44
*144 out45
*145 out46
*146 out47
*147 out48
*148 out49
*149 out5
*150 out50
*151 out51
*152 out52
*153 out53
*154 out54
*155 out55
*156 out56
*157 out57
*158 out58
*159 out59
*160 out6
*161 out60
*162 out61
*163 out62
*164 out63
*165 out64
*166 out65
*167 out66
*168 out67
*169 out68
*170 out69
*171 out7
*172 out70
*173 out71
*174 out72
*175 out73
*176 out74
*177 out75
*178 out76
*179 out77
*180 out78
*181 out79
*182 out8
*183 out80
*184 out81
*185 out82
*186 out83
*187 out84
*188 out85
*189 out86
*190 out87
*191 out88
*192 out89
*193 out9
*194 out90
*195 out91
*196 out92
*197 out93
*198 out94
*199 out95
*200 out96
*201 out97
*202 out98
*203 out99
*204 rst
*205 clknet_0_clk
*206 clknet_0_net111
*207 clknet_0_net112
*208 clknet_0_net114
*209 clknet_0_net115
*210 clknet_0_net116
*211 clknet_0_net122
*212 clknet_0_net131
*213 clknet_0_net132
*214 clknet_0_net133
*215 clknet_0_net136
*216 clknet_0_net137
*217 clknet_0_net141
*218 clknet_0_net142
*219 clknet_0_net147
*220 clknet_0_net148
*221 clknet_0_net153
*222 clknet_0_net156
*223 clknet_0_net158
*224 clknet_0_net159
*225 clknet_0_net160
*226 clknet_0_net165
*227 clknet_0_net178
*228 clknet_0_net194
*229 clknet_0_net204
*230 clknet_0_net207
*231 clknet_0_net220
*232 clknet_0_net222
*233 clknet_0_net226
*234 clknet_0_net229
*235 clknet_0_net233
*236 clknet_0_net234
*237 clknet_0_net240
*238 clknet_0_net241
*239 clknet_0_net243
*240 clknet_0_net247
*241 clknet_0_net248
*242 clknet_0_net253
*243 clknet_0_net254
*244 clknet_0_net255
*245 clknet_0_net257
*246 clknet_0_net258
*247 clknet_0_net260
*248 clknet_0_net261
*249 clknet_0_net278
*250 clknet_0_net280
*251 clknet_0_net282
*252 clknet_0_net291
*253 clknet_0_net295
*254 clknet_0_net296
*255 clknet_0_net297
*256 clknet_0_net298
*257 clknet_0_net299
*258 clknet_0_net310
*259 clknet_0_net312
*260 clknet_0_net313
*261 clknet_0_net324
*262 clknet_0_net329
*263 clknet_0_net331
*264 clknet_0_net337
*265 clknet_0_net339
*266 clknet_0_net340
*267 clknet_0_net342
*268 clknet_0_net346
*269 clknet_0_net348
*270 clknet_0_net349
*271 clknet_0_net357
*272 clknet_0_net363
*273 clknet_0_net367
*274 clknet_0_net368
*275 clknet_0_net372
*276 clknet_0_net388
*277 clknet_0_net396
*278 clknet_0_net397
*279 clknet_0_net399
*280 clknet_0_net405
*281 clknet_0_net408
*282 clknet_0_net409
*283 clknet_0_net411
*284 clknet_0_net415
*285 clknet_0_net416
*286 clknet_0_net417
*287 clknet_0_net418
*288 clknet_0_net422
*289 clknet_0_net428
*290 clknet_0_net429
*291 clknet_0_net442
*292 clknet_0_net444
*293 clknet_0_net446
*294 clknet_0_net452
*295 clknet_0_net467
*296 clknet_0_net47
*297 clknet_0_net476
*298 clknet_0_net528
*299 clknet_0_net529
*300 clknet_0_net54
*301 clknet_0_net542
*302 clknet_0_net543
*303 clknet_0_net544
*304 clknet_0_net56
*305 clknet_0_net562
*306 clknet_0_net563
*307 clknet_0_net57
*308 clknet_0_net580
*309 clknet_0_net581
*310 clknet_0_net59
*311 clknet_0_net596
*312 clknet_0_net597
*313 clknet_0_net598
*314 clknet_0_net61
*315 clknet_0_net616
*316 clknet_0_net617
*317 clknet_0_net618
*318 clknet_0_net62
*319 clknet_0_net637
*320 clknet_0_net638
*321 clknet_0_net64
*322 clknet_0_net657
*323 clknet_0_net675
*324 clknet_0_net676
*325 clknet_0_net696
*326 clknet_0_net73
*327 clknet_0_net732
*328 clknet_0_net733
*329 clknet_0_net734
*330 clknet_0_net75
*331 clknet_0_net752
*332 clknet_0_net753
*333 clknet_0_net754
*334 clknet_0_net78
*335 clknet_0_net83
*336 clknet_0_net870
*337 clknet_0_net882
*338 clknet_0_net883
*339 clknet_0_net884
*340 clknet_0_net885
*341 clknet_0_net888
*342 clknet_0_net890
*343 clknet_0_net893
*344 clknet_0_net897
*345 clknet_0_net898
*346 clknet_0_net899
*347 clknet_0_net902
*348 clknet_0_net904
*349 clknet_0_net908
*350 clknet_0_net916
*351 clknet_0_net918
*352 clknet_0_net920
*353 clknet_0_net923
*354 clknet_0_net927
*355 clknet_0_net931
*356 clknet_1_0__leaf_net111
*357 clknet_1_0__leaf_net112
*358 clknet_1_0__leaf_net114
*359 clknet_1_0__leaf_net115
*360 clknet_1_0__leaf_net116
*361 clknet_1_0__leaf_net122
*362 clknet_1_0__leaf_net131
*363 clknet_1_0__leaf_net132
*364 clknet_1_0__leaf_net133
*365 clknet_1_0__leaf_net136
*366 clknet_1_0__leaf_net137
*367 clknet_1_0__leaf_net141
*368 clknet_1_0__leaf_net142
*369 clknet_1_0__leaf_net147
*370 clknet_1_0__leaf_net148
*371 clknet_1_0__leaf_net153
*372 clknet_1_0__leaf_net156
*373 clknet_1_0__leaf_net158
*374 clknet_1_0__leaf_net159
*375 clknet_1_0__leaf_net160
*376 clknet_1_0__leaf_net165
*377 clknet_1_0__leaf_net178
*378 clknet_1_0__leaf_net194
*379 clknet_1_0__leaf_net204
*380 clknet_1_0__leaf_net207
*381 clknet_1_0__leaf_net220
*382 clknet_1_0__leaf_net222
*383 clknet_1_0__leaf_net226
*384 clknet_1_0__leaf_net229
*385 clknet_1_0__leaf_net233
*386 clknet_1_0__leaf_net234
*387 clknet_1_0__leaf_net240
*388 clknet_1_0__leaf_net241
*389 clknet_1_0__leaf_net243
*390 clknet_1_0__leaf_net247
*391 clknet_1_0__leaf_net248
*392 clknet_1_0__leaf_net253
*393 clknet_1_0__leaf_net254
*394 clknet_1_0__leaf_net255
*395 clknet_1_0__leaf_net257
*396 clknet_1_0__leaf_net258
*397 clknet_1_0__leaf_net260
*398 clknet_1_0__leaf_net261
*399 clknet_1_0__leaf_net278
*400 clknet_1_0__leaf_net280
*401 clknet_1_0__leaf_net282
*402 clknet_1_0__leaf_net291
*403 clknet_1_0__leaf_net295
*404 clknet_1_0__leaf_net296
*405 clknet_1_0__leaf_net297
*406 clknet_1_0__leaf_net298
*407 clknet_1_0__leaf_net299
*408 clknet_1_0__leaf_net310
*409 clknet_1_0__leaf_net312
*410 clknet_1_0__leaf_net313
*411 clknet_1_0__leaf_net324
*412 clknet_1_0__leaf_net329
*413 clknet_1_0__leaf_net331
*414 clknet_1_0__leaf_net337
*415 clknet_1_0__leaf_net339
*416 clknet_1_0__leaf_net340
*417 clknet_1_0__leaf_net342
*418 clknet_1_0__leaf_net346
*419 clknet_1_0__leaf_net348
*420 clknet_1_0__leaf_net349
*421 clknet_1_0__leaf_net357
*422 clknet_1_0__leaf_net363
*423 clknet_1_0__leaf_net367
*424 clknet_1_0__leaf_net368
*425 clknet_1_0__leaf_net372
*426 clknet_1_0__leaf_net388
*427 clknet_1_0__leaf_net396
*428 clknet_1_0__leaf_net397
*429 clknet_1_0__leaf_net399
*430 clknet_1_0__leaf_net405
*431 clknet_1_0__leaf_net408
*432 clknet_1_0__leaf_net409
*433 clknet_1_0__leaf_net411
*434 clknet_1_0__leaf_net415
*435 clknet_1_0__leaf_net416
*436 clknet_1_0__leaf_net417
*437 clknet_1_0__leaf_net418
*438 clknet_1_0__leaf_net422
*439 clknet_1_0__leaf_net428
*440 clknet_1_0__leaf_net429
*441 clknet_1_0__leaf_net442
*442 clknet_1_0__leaf_net444
*443 clknet_1_0__leaf_net446
*444 clknet_1_0__leaf_net452
*445 clknet_1_0__leaf_net467
*446 clknet_1_0__leaf_net47
*447 clknet_1_0__leaf_net476
*448 clknet_1_0__leaf_net528
*449 clknet_1_0__leaf_net529
*450 clknet_1_0__leaf_net54
*451 clknet_1_0__leaf_net542
*452 clknet_1_0__leaf_net543
*453 clknet_1_0__leaf_net544
*454 clknet_1_0__leaf_net56
*455 clknet_1_0__leaf_net562
*456 clknet_1_0__leaf_net563
*457 clknet_1_0__leaf_net57
*458 clknet_1_0__leaf_net580
*459 clknet_1_0__leaf_net581
*460 clknet_1_0__leaf_net59
*461 clknet_1_0__leaf_net596
*462 clknet_1_0__leaf_net597
*463 clknet_1_0__leaf_net598
*464 clknet_1_0__leaf_net61
*465 clknet_1_0__leaf_net616
*466 clknet_1_0__leaf_net617
*467 clknet_1_0__leaf_net618
*468 clknet_1_0__leaf_net62
*469 clknet_1_0__leaf_net637
*470 clknet_1_0__leaf_net638
*471 clknet_1_0__leaf_net64
*472 clknet_1_0__leaf_net657
*473 clknet_1_0__leaf_net675
*474 clknet_1_0__leaf_net676
*475 clknet_1_0__leaf_net696
*476 clknet_1_0__leaf_net73
*477 clknet_1_0__leaf_net732
*478 clknet_1_0__leaf_net733
*479 clknet_1_0__leaf_net734
*480 clknet_1_0__leaf_net75
*481 clknet_1_0__leaf_net752
*482 clknet_1_0__leaf_net753
*483 clknet_1_0__leaf_net754
*484 clknet_1_0__leaf_net78
*485 clknet_1_0__leaf_net83
*486 clknet_1_0__leaf_net870
*487 clknet_1_0__leaf_net882
*488 clknet_1_0__leaf_net883
*489 clknet_1_0__leaf_net884
*490 clknet_1_0__leaf_net885
*491 clknet_1_0__leaf_net888
*492 clknet_1_0__leaf_net890
*493 clknet_1_0__leaf_net893
*494 clknet_1_0__leaf_net897
*495 clknet_1_0__leaf_net898
*496 clknet_1_0__leaf_net899
*497 clknet_1_0__leaf_net902
*498 clknet_1_0__leaf_net904
*499 clknet_1_0__leaf_net908
*500 clknet_1_0__leaf_net916
*501 clknet_1_0__leaf_net918
*502 clknet_1_0__leaf_net920
*503 clknet_1_0__leaf_net923
*504 clknet_1_0__leaf_net927
*505 clknet_1_0__leaf_net931
*506 clknet_1_1__leaf_net111
*507 clknet_1_1__leaf_net112
*508 clknet_1_1__leaf_net114
*509 clknet_1_1__leaf_net115
*510 clknet_1_1__leaf_net116
*511 clknet_1_1__leaf_net122
*512 clknet_1_1__leaf_net131
*513 clknet_1_1__leaf_net132
*514 clknet_1_1__leaf_net133
*515 clknet_1_1__leaf_net136
*516 clknet_1_1__leaf_net137
*517 clknet_1_1__leaf_net141
*518 clknet_1_1__leaf_net142
*519 clknet_1_1__leaf_net147
*520 clknet_1_1__leaf_net148
*521 clknet_1_1__leaf_net153
*522 clknet_1_1__leaf_net156
*523 clknet_1_1__leaf_net158
*524 clknet_1_1__leaf_net159
*525 clknet_1_1__leaf_net160
*526 clknet_1_1__leaf_net165
*527 clknet_1_1__leaf_net178
*528 clknet_1_1__leaf_net194
*529 clknet_1_1__leaf_net204
*530 clknet_1_1__leaf_net207
*531 clknet_1_1__leaf_net220
*532 clknet_1_1__leaf_net222
*533 clknet_1_1__leaf_net226
*534 clknet_1_1__leaf_net229
*535 clknet_1_1__leaf_net233
*536 clknet_1_1__leaf_net234
*537 clknet_1_1__leaf_net240
*538 clknet_1_1__leaf_net241
*539 clknet_1_1__leaf_net243
*540 clknet_1_1__leaf_net247
*541 clknet_1_1__leaf_net248
*542 clknet_1_1__leaf_net253
*543 clknet_1_1__leaf_net254
*544 clknet_1_1__leaf_net255
*545 clknet_1_1__leaf_net257
*546 clknet_1_1__leaf_net258
*547 clknet_1_1__leaf_net260
*548 clknet_1_1__leaf_net261
*549 clknet_1_1__leaf_net278
*550 clknet_1_1__leaf_net280
*551 clknet_1_1__leaf_net282
*552 clknet_1_1__leaf_net291
*553 clknet_1_1__leaf_net295
*554 clknet_1_1__leaf_net296
*555 clknet_1_1__leaf_net297
*556 clknet_1_1__leaf_net298
*557 clknet_1_1__leaf_net299
*558 clknet_1_1__leaf_net310
*559 clknet_1_1__leaf_net312
*560 clknet_1_1__leaf_net313
*561 clknet_1_1__leaf_net324
*562 clknet_1_1__leaf_net329
*563 clknet_1_1__leaf_net331
*564 clknet_1_1__leaf_net337
*565 clknet_1_1__leaf_net339
*566 clknet_1_1__leaf_net340
*567 clknet_1_1__leaf_net342
*568 clknet_1_1__leaf_net346
*569 clknet_1_1__leaf_net348
*570 clknet_1_1__leaf_net349
*571 clknet_1_1__leaf_net357
*572 clknet_1_1__leaf_net363
*573 clknet_1_1__leaf_net367
*574 clknet_1_1__leaf_net368
*575 clknet_1_1__leaf_net372
*576 clknet_1_1__leaf_net388
*577 clknet_1_1__leaf_net396
*578 clknet_1_1__leaf_net397
*579 clknet_1_1__leaf_net399
*580 clknet_1_1__leaf_net405
*581 clknet_1_1__leaf_net408
*582 clknet_1_1__leaf_net409
*583 clknet_1_1__leaf_net411
*584 clknet_1_1__leaf_net415
*585 clknet_1_1__leaf_net416
*586 clknet_1_1__leaf_net417
*587 clknet_1_1__leaf_net418
*588 clknet_1_1__leaf_net422
*589 clknet_1_1__leaf_net428
*590 clknet_1_1__leaf_net429
*591 clknet_1_1__leaf_net442
*592 clknet_1_1__leaf_net444
*593 clknet_1_1__leaf_net446
*594 clknet_1_1__leaf_net452
*595 clknet_1_1__leaf_net467
*596 clknet_1_1__leaf_net47
*597 clknet_1_1__leaf_net476
*598 clknet_1_1__leaf_net528
*599 clknet_1_1__leaf_net529
*600 clknet_1_1__leaf_net54
*601 clknet_1_1__leaf_net542
*602 clknet_1_1__leaf_net543
*603 clknet_1_1__leaf_net544
*604 clknet_1_1__leaf_net56
*605 clknet_1_1__leaf_net562
*606 clknet_1_1__leaf_net563
*607 clknet_1_1__leaf_net57
*608 clknet_1_1__leaf_net580
*609 clknet_1_1__leaf_net581
*610 clknet_1_1__leaf_net59
*611 clknet_1_1__leaf_net596
*612 clknet_1_1__leaf_net597
*613 clknet_1_1__leaf_net598
*614 clknet_1_1__leaf_net61
*615 clknet_1_1__leaf_net616
*616 clknet_1_1__leaf_net617
*617 clknet_1_1__leaf_net618
*618 clknet_1_1__leaf_net62
*619 clknet_1_1__leaf_net637
*620 clknet_1_1__leaf_net638
*621 clknet_1_1__leaf_net64
*622 clknet_1_1__leaf_net657
*623 clknet_1_1__leaf_net675
*624 clknet_1_1__leaf_net676
*625 clknet_1_1__leaf_net696
*626 clknet_1_1__leaf_net73
*627 clknet_1_1__leaf_net732
*628 clknet_1_1__leaf_net733
*629 clknet_1_1__leaf_net734
*630 clknet_1_1__leaf_net75
*631 clknet_1_1__leaf_net752
*632 clknet_1_1__leaf_net753
*633 clknet_1_1__leaf_net754
*634 clknet_1_1__leaf_net78
*635 clknet_1_1__leaf_net83
*636 clknet_1_1__leaf_net870
*637 clknet_1_1__leaf_net882
*638 clknet_1_1__leaf_net883
*639 clknet_1_1__leaf_net884
*640 clknet_1_1__leaf_net885
*641 clknet_1_1__leaf_net888
*642 clknet_1_1__leaf_net890
*643 clknet_1_1__leaf_net893
*644 clknet_1_1__leaf_net897
*645 clknet_1_1__leaf_net898
*646 clknet_1_1__leaf_net899
*647 clknet_1_1__leaf_net902
*648 clknet_1_1__leaf_net904
*649 clknet_1_1__leaf_net908
*650 clknet_1_1__leaf_net916
*651 clknet_1_1__leaf_net918
*652 clknet_1_1__leaf_net920
*653 clknet_1_1__leaf_net923
*654 clknet_1_1__leaf_net927
*655 clknet_1_1__leaf_net931
*656 clknet_2_0__leaf_clk
*657 clknet_2_1__leaf_clk
*658 clknet_2_2__leaf_clk
*659 clknet_2_3__leaf_clk
*660 clknet_leaf_0_clk
*661 clknet_leaf_10_clk
*662 clknet_leaf_12_clk
*663 clknet_leaf_13_clk
*664 clknet_leaf_14_clk
*665 clknet_leaf_15_clk
*666 clknet_leaf_16_clk
*667 clknet_leaf_17_clk
*668 clknet_leaf_18_clk
*669 clknet_leaf_19_clk
*670 clknet_leaf_1_clk
*671 clknet_leaf_20_clk
*672 clknet_leaf_21_clk
*673 clknet_leaf_22_clk
*674 clknet_leaf_23_clk
*675 clknet_leaf_24_clk
*676 clknet_leaf_25_clk
*677 clknet_leaf_26_clk
*678 clknet_leaf_27_clk
*679 clknet_leaf_28_clk
*680 clknet_leaf_29_clk
*681 clknet_leaf_2_clk
*682 clknet_leaf_30_clk
*683 clknet_leaf_31_clk
*684 clknet_leaf_32_clk
*685 clknet_leaf_33_clk
*686 clknet_leaf_34_clk
*687 clknet_leaf_35_clk
*688 clknet_leaf_36_clk
*689 clknet_leaf_37_clk
*690 clknet_leaf_38_clk
*691 clknet_leaf_39_clk
*692 clknet_leaf_3_clk
*693 clknet_leaf_40_clk
*694 clknet_leaf_41_clk
*695 clknet_leaf_42_clk
*696 clknet_leaf_4_clk
*697 clknet_leaf_5_clk
*698 clknet_leaf_6_clk
*699 clknet_leaf_8_clk
*700 clknet_leaf_9_clk
*701 net0
*702 net1
*703 net10
*704 net100
*705 net1000
*706 net1001
*707 net1002
*708 net1003
*709 net1004
*710 net1005
*711 net1006
*712 net1007
*713 net1008
*714 net1009
*715 net101
*716 net1010
*717 net1011
*718 net1012
*719 net1013
*720 net1014
*721 net1015
*722 net1016
*723 net1017
*724 net1018
*725 net1019
*726 net102
*727 net1020
*728 net1021
*729 net1022
*730 net1023
*731 net1024
*732 net1025
*733 net1026
*734 net1027
*735 net1028
*736 net1029
*737 net103
*738 net1030
*739 net1031
*740 net1032
*741 net1033
*742 net1034
*743 net1035
*744 net1036
*745 net1037
*746 net1038
*747 net1039
*748 net104
*749 net1040
*750 net1041
*751 net1042
*752 net1043
*753 net1044
*754 net1045
*755 net1046
*756 net1047
*757 net1048
*758 net1049
*759 net105
*760 net1050
*761 net1051
*762 net1052
*763 net1053
*764 net1054
*765 net1055
*766 net1056
*767 net1057
*768 net1058
*769 net1059
*770 net106
*771 net1060
*772 net1061
*773 net1062
*774 net1063
*775 net1064
*776 net1065
*777 net1066
*778 net1067
*779 net1068
*780 net1069
*781 net107
*782 net1070
*783 net1071
*784 net1072
*785 net1073
*786 net1074
*787 net1075
*788 net1076
*789 net1077
*790 net1078
*791 net1079
*792 net108
*793 net1080
*794 net1081
*795 net1082
*796 net1083
*797 net1084
*798 net1085
*799 net1086
*800 net1087
*801 net1088
*802 net1089
*803 net109
*804 net1090
*805 net1091
*806 net1092
*807 net1093
*808 net1094
*809 net1095
*810 net1096
*811 net1097
*812 net1098
*813 net1099
*814 net11
*815 net110
*816 net1100
*817 net1101
*818 net1102
*819 net1103
*820 net1104
*821 net111
*822 net112
*823 net113
*824 net114
*825 net115
*826 net116
*827 net117
*828 net118
*829 net119
*830 net12
*831 net120
*832 net121
*833 net122
*834 net123
*835 net124
*836 net125
*837 net126
*838 net127
*839 net128
*840 net129
*841 net13
*842 net130
*843 net131
*844 net132
*845 net133
*846 net134
*847 net135
*848 net136
*849 net137
*850 net138
*851 net139
*852 net14
*853 net140
*854 net141
*855 net142
*856 net143
*857 net144
*858 net145
*859 net146
*860 net147
*861 net148
*862 net149
*863 net15
*864 net150
*865 net151
*866 net152
*867 net153
*868 net154
*869 net155
*870 net156
*871 net157
*872 net158
*873 net159
*874 net16
*875 net160
*876 net161
*877 net162
*878 net163
*879 net164
*880 net165
*881 net166
*882 net167
*883 net168
*884 net169
*885 net17
*886 net170
*887 net171
*888 net172
*889 net173
*890 net174
*891 net175
*892 net176
*893 net177
*894 net178
*895 net179
*896 net18
*897 net180
*898 net181
*899 net182
*900 net183
*901 net184
*902 net185
*903 net186
*904 net187
*905 net188
*906 net189
*907 net19
*908 net190
*909 net191
*910 net192
*911 net193
*912 net194
*913 net195
*914 net196
*915 net197
*916 net198
*917 net199
*918 net2
*919 net20
*920 net200
*921 net201
*922 net202
*923 net203
*924 net204
*925 net205
*926 net206
*927 net207
*928 net208
*929 net209
*930 net21
*931 net210
*932 net211
*933 net212
*934 net213
*935 net214
*936 net215
*937 net216
*938 net217
*939 net218
*940 net219
*941 net22
*942 net220
*943 net221
*944 net222
*945 net223
*946 net224
*947 net225
*948 net226
*949 net227
*950 net228
*951 net229
*952 net23
*953 net230
*954 net231
*955 net232
*956 net233
*957 net234
*958 net235
*959 net236
*960 net237
*961 net238
*962 net239
*963 net24
*964 net240
*965 net241
*966 net242
*967 net243
*968 net244
*969 net245
*970 net246
*971 net247
*972 net248
*973 net249
*974 net25
*975 net250
*976 net251
*977 net252
*978 net253
*979 net254
*980 net255
*981 net256
*982 net257
*983 net258
*984 net259
*985 net26
*986 net260
*987 net261
*988 net262
*989 net263
*990 net264
*991 net265
*992 net266
*993 net267
*994 net268
*995 net269
*996 net27
*997 net270
*998 net271
*999 net272
*1000 net273
*1001 net274
*1002 net275
*1003 net276
*1004 net277
*1005 net278
*1006 net279
*1007 net28
*1008 net280
*1009 net281
*1010 net282
*1011 net283
*1012 net284
*1013 net285
*1014 net286
*1015 net287
*1016 net288
*1017 net289
*1018 net29
*1019 net290
*1020 net291
*1021 net292
*1022 net293
*1023 net294
*1024 net295
*1025 net296
*1026 net297
*1027 net298
*1028 net299
*1029 net3
*1030 net30
*1031 net300
*1032 net301
*1033 net302
*1034 net303
*1035 net304
*1036 net305
*1037 net306
*1038 net307
*1039 net308
*1040 net309
*1041 net31
*1042 net310
*1043 net311
*1044 net312
*1045 net313
*1046 net314
*1047 net315
*1048 net316
*1049 net317
*1050 net318
*1051 net319
*1052 net32
*1053 net320
*1054 net321
*1055 net322
*1056 net323
*1057 net324
*1058 net325
*1059 net326
*1060 net327
*1061 net328
*1062 net329
*1063 net33
*1064 net330
*1065 net331
*1066 net332
*1067 net333
*1068 net334
*1069 net335
*1070 net336
*1071 net337
*1072 net338
*1073 net339
*1074 net34
*1075 net340
*1076 net341
*1077 net342
*1078 net343
*1079 net344
*1080 net345
*1081 net346
*1082 net347
*1083 net348
*1084 net349
*1085 net35
*1086 net350
*1087 net351
*1088 net352
*1089 net353
*1090 net354
*1091 net355
*1092 net356
*1093 net357
*1094 net358
*1095 net359
*1096 net36
*1097 net360
*1098 net361
*1099 net362
*1100 net363
*1101 net364
*1102 net365
*1103 net366
*1104 net367
*1105 net368
*1106 net369
*1107 net37
*1108 net370
*1109 net371
*1110 net372
*1111 net373
*1112 net374
*1113 net375
*1114 net376
*1115 net377
*1116 net378
*1117 net379
*1118 net38
*1119 net380
*1120 net381
*1121 net382
*1122 net383
*1123 net384
*1124 net385
*1125 net386
*1126 net387
*1127 net388
*1128 net389
*1129 net39
*1130 net390
*1131 net391
*1132 net392
*1133 net393
*1134 net394
*1135 net395
*1136 net396
*1137 net397
*1138 net398
*1139 net399
*1140 net4
*1141 net40
*1142 net400
*1143 net401
*1144 net402
*1145 net403
*1146 net404
*1147 net405
*1148 net406
*1149 net407
*1150 net408
*1151 net409
*1152 net41
*1153 net410
*1154 net411
*1155 net412
*1156 net413
*1157 net414
*1158 net415
*1159 net416
*1160 net417
*1161 net418
*1162 net419
*1163 net42
*1164 net420
*1165 net421
*1166 net422
*1167 net423
*1168 net424
*1169 net425
*1170 net426
*1171 net427
*1172 net428
*1173 net429
*1174 net43
*1175 net430
*1176 net431
*1177 net432
*1178 net433
*1179 net434
*1180 net435
*1181 net436
*1182 net437
*1183 net438
*1184 net439
*1185 net44
*1186 net440
*1187 net441
*1188 net442
*1189 net443
*1190 net444
*1191 net445
*1192 net446
*1193 net447
*1194 net448
*1195 net449
*1196 net45
*1197 net450
*1198 net451
*1199 net452
*1200 net453
*1201 net454
*1202 net455
*1203 net456
*1204 net457
*1205 net458
*1206 net459
*1207 net46
*1208 net460
*1209 net461
*1210 net462
*1211 net463
*1212 net464
*1213 net465
*1214 net466
*1215 net467
*1216 net468
*1217 net469
*1218 net47
*1219 net470
*1220 net471
*1221 net472
*1222 net473
*1223 net474
*1224 net475
*1225 net476
*1226 net477
*1227 net478
*1228 net479
*1229 net48
*1230 net480
*1231 net481
*1232 net482
*1233 net483
*1234 net484
*1235 net485
*1236 net486
*1237 net487
*1238 net488
*1239 net489
*1240 net49
*1241 net490
*1242 net491
*1243 net492
*1244 net493
*1245 net494
*1246 net495
*1247 net496
*1248 net497
*1249 net498
*1250 net499
*1251 net5
*1252 net50
*1253 net500
*1254 net501
*1255 net502
*1256 net503
*1257 net504
*1258 net505
*1259 net506
*1260 net507
*1261 net508
*1262 net509
*1263 net51
*1264 net510
*1265 net511
*1266 net512
*1267 net513
*1268 net514
*1269 net515
*1270 net516
*1271 net517
*1272 net518
*1273 net519
*1274 net52
*1275 net520
*1276 net521
*1277 net522
*1278 net523
*1279 net524
*1280 net525
*1281 net526
*1282 net527
*1283 net528
*1284 net529
*1285 net53
*1286 net530
*1287 net531
*1288 net532
*1289 net533
*1290 net534
*1291 net535
*1292 net536
*1293 net537
*1294 net538
*1295 net539
*1296 net54
*1297 net540
*1298 net541
*1299 net542
*1300 net543
*1301 net544
*1302 net545
*1303 net546
*1304 net547
*1305 net548
*1306 net549
*1307 net55
*1308 net550
*1309 net551
*1310 net552
*1311 net553
*1312 net554
*1313 net555
*1314 net556
*1315 net557
*1316 net558
*1317 net559
*1318 net56
*1319 net560
*1320 net561
*1321 net562
*1322 net563
*1323 net564
*1324 net565
*1325 net566
*1326 net567
*1327 net568
*1328 net569
*1329 net57
*1330 net570
*1331 net571
*1332 net572
*1333 net573
*1334 net574
*1335 net575
*1336 net576
*1337 net577
*1338 net578
*1339 net579
*1340 net58
*1341 net580
*1342 net581
*1343 net582
*1344 net583
*1345 net584
*1346 net585
*1347 net586
*1348 net587
*1349 net588
*1350 net589
*1351 net59
*1352 net590
*1353 net591
*1354 net592
*1355 net593
*1356 net594
*1357 net595
*1358 net596
*1359 net597
*1360 net598
*1361 net599
*1362 net6
*1363 net60
*1364 net600
*1365 net601
*1366 net602
*1367 net603
*1368 net604
*1369 net605
*1370 net606
*1371 net607
*1372 net608
*1373 net609
*1374 net61
*1375 net610
*1376 net611
*1377 net612
*1378 net613
*1379 net614
*1380 net615
*1381 net616
*1382 net617
*1383 net618
*1384 net619
*1385 net62
*1386 net620
*1387 net621
*1388 net622
*1389 net623
*1390 net624
*1391 net625
*1392 net626
*1393 net627
*1394 net628
*1395 net629
*1396 net63
*1397 net630
*1398 net631
*1399 net632
*1400 net633
*1401 net634
*1402 net635
*1403 net636
*1404 net637
*1405 net638
*1406 net639
*1407 net64
*1408 net640
*1409 net641
*1410 net642
*1411 net643
*1412 net644
*1413 net645
*1414 net646
*1415 net647
*1416 net648
*1417 net649
*1418 net65
*1419 net650
*1420 net651
*1421 net652
*1422 net653
*1423 net654
*1424 net655
*1425 net656
*1426 net657
*1427 net658
*1428 net659
*1429 net66
*1430 net660
*1431 net661
*1432 net662
*1433 net663
*1434 net664
*1435 net665
*1436 net666
*1437 net667
*1438 net668
*1439 net669
*1440 net67
*1441 net670
*1442 net671
*1443 net672
*1444 net673
*1445 net674
*1446 net675
*1447 net676
*1448 net677
*1449 net678
*1450 net679
*1451 net68
*1452 net680
*1453 net681
*1454 net682
*1455 net683
*1456 net684
*1457 net685
*1458 net686
*1459 net687
*1460 net688
*1461 net689
*1462 net69
*1463 net690
*1464 net691
*1465 net692
*1466 net693
*1467 net694
*1468 net695
*1469 net696
*1470 net697
*1471 net698
*1472 net699
*1473 net7
*1474 net70
*1475 net700
*1476 net701
*1477 net702
*1478 net703
*1479 net704
*1480 net705
*1481 net706
*1482 net707
*1483 net708
*1484 net709
*1485 net71
*1486 net710
*1487 net711
*1488 net712
*1489 net713
*1490 net714
*1491 net715
*1492 net716
*1493 net717
*1494 net718
*1495 net719
*1496 net72
*1497 net720
*1498 net721
*1499 net722
*1500 net723
*1501 net724
*1502 net725
*1503 net726
*1504 net727
*1505 net728
*1506 net729
*1507 net73
*1508 net730
*1509 net731
*1510 net732
*1511 net733
*1512 net734
*1513 net735
*1514 net736
*1515 net737
*1516 net738
*1517 net739
*1518 net74
*1519 net740
*1520 net741
*1521 net742
*1522 net743
*1523 net744
*1524 net745
*1525 net746
*1526 net747
*1527 net748
*1528 net749
*1529 net75
*1530 net750
*1531 net751
*1532 net752
*1533 net753
*1534 net754
*1535 net755
*1536 net756
*1537 net757
*1538 net758
*1539 net759
*1540 net76
*1541 net760
*1542 net761
*1543 net762
*1544 net763
*1545 net764
*1546 net765
*1547 net766
*1548 net767
*1549 net768
*1550 net769
*1551 net77
*1552 net770
*1553 net771
*1554 net772
*1555 net773
*1556 net774
*1557 net775
*1558 net776
*1559 net777
*1560 net778
*1561 net779
*1562 net78
*1563 net780
*1564 net781
*1565 net782
*1566 net783
*1567 net784
*1568 net785
*1569 net786
*1570 net787
*1571 net788
*1572 net789
*1573 net79
*1574 net790
*1575 net791
*1576 net792
*1577 net793
*1578 net794
*1579 net795
*1580 net796
*1581 net797
*1582 net798
*1583 net799
*1584 net8
*1585 net80
*1586 net800
*1587 net801
*1588 net802
*1589 net803
*1590 net804
*1591 net805
*1592 net806
*1593 net807
*1594 net808
*1595 net809
*1596 net81
*1597 net810
*1598 net811
*1599 net812
*1600 net813
*1601 net814
*1602 net815
*1603 net816
*1604 net817
*1605 net818
*1606 net819
*1607 net82
*1608 net820
*1609 net821
*1610 net822
*1611 net823
*1612 net824
*1613 net825
*1614 net826
*1615 net827
*1616 net828
*1617 net829
*1618 net83
*1619 net830
*1620 net831
*1621 net832
*1622 net833
*1623 net834
*1624 net835
*1625 net836
*1626 net837
*1627 net838
*1628 net839
*1629 net84
*1630 net840
*1631 net841
*1632 net842
*1633 net843
*1634 net844
*1635 net845
*1636 net846
*1637 net847
*1638 net848
*1639 net849
*1640 net85
*1641 net850
*1642 net851
*1643 net852
*1644 net853
*1645 net854
*1646 net855
*1647 net856
*1648 net857
*1649 net858
*1650 net859
*1651 net86
*1652 net860
*1653 net861
*1654 net862
*1655 net863
*1656 net864
*1657 net865
*1658 net866
*1659 net867
*1660 net868
*1661 net869
*1662 net87
*1663 net870
*1664 net871
*1665 net872
*1666 net873
*1667 net874
*1668 net875
*1669 net876
*1670 net877
*1671 net878
*1672 net879
*1673 net88
*1674 net880
*1675 net881
*1676 net882
*1677 net883
*1678 net884
*1679 net885
*1680 net886
*1681 net887
*1682 net888
*1683 net889
*1684 net89
*1685 net890
*1686 net891
*1687 net892
*1688 net893
*1689 net894
*1690 net895
*1691 net896
*1692 net897
*1693 net898
*1694 net899
*1695 net9
*1696 net90
*1697 net900
*1698 net901
*1699 net902
*1700 net903
*1701 net904
*1702 net905
*1703 net906
*1704 net907
*1705 net908
*1706 net909
*1707 net91
*1708 net910
*1709 net911
*1710 net912
*1711 net913
*1712 net914
*1713 net915
*1714 net916
*1715 net917
*1716 net918
*1717 net919
*1718 net92
*1719 net920
*1720 net921
*1721 net922
*1722 net923
*1723 net924
*1724 net925
*1725 net926
*1726 net927
*1727 net928
*1728 net929
*1729 net93
*1730 net930
*1731 net931
*1732 net932
*1733 net933
*1734 net934
*1735 net935
*1736 net936
*1737 net937
*1738 net938
*1739 net939
*1740 net94
*1741 net940
*1742 net941
*1743 net942
*1744 net943
*1745 net944
*1746 net945
*1747 net946
*1748 net947
*1749 net948
*1750 net949
*1751 net95
*1752 net950
*1753 net951
*1754 net952
*1755 net953
*1756 net954
*1757 net955
*1758 net956
*1759 net957
*1760 net958
*1761 net959
*1762 net96
*1763 net960
*1764 net961
*1765 net962
*1766 net963
*1767 net964
*1768 net965
*1769 net966
*1770 net967
*1771 net968
*1772 net969
*1773 net97
*1774 net970
*1775 net971
*1776 net972
*1777 net973
*1778 net974
*1779 net975
*1780 net976
*1781 net977
*1782 net978
*1783 net979
*1784 net98
*1785 net980
*1786 net981
*1787 net982
*1788 net983
*1789 net984
*1790 net985
*1791 net986
*1792 net987
*1793 net988
*1794 net989
*1795 net99
*1796 net990
*1797 net991
*1798 net992
*1799 net993
*1800 net994
*1801 net995
*1802 net996
*1803 net997
*1804 net998
*1805 net999
*1806 ANTENNA_1
*1807 ANTENNA_2
*1808 ANTENNA_c100_A2
*1809 ANTENNA_c101_A0
*1810 ANTENNA_c101_A1
*1811 ANTENNA_c101_S0
*1812 ANTENNA_c101_X
*1813 ANTENNA_c102_A1
*1814 ANTENNA_c102_A2
*1815 ANTENNA_c102_A3
*1816 ANTENNA_c102_S1
*1817 ANTENNA_c103_A0
*1818 ANTENNA_c103_A1
*1819 ANTENNA_c103_S0
*1820 ANTENNA_c103_X
*1821 ANTENNA_c104_A0
*1822 ANTENNA_c104_A1
*1823 ANTENNA_c104_A2
*1824 ANTENNA_c116_A1
*1825 ANTENNA_c116_A3
*1826 ANTENNA_c116_S0
*1827 ANTENNA_c117_A0
*1828 ANTENNA_c117_A1
*1829 ANTENNA_c118_A1
*1830 ANTENNA_c118_S0
*1831 ANTENNA_c118_S1
*1832 ANTENNA_c119_A1
*1833 ANTENNA_c120_A2
*1834 ANTENNA_c121_A0
*1835 ANTENNA_c123_A0
*1836 ANTENNA_c123_A2
*1837 ANTENNA_c125_A0