*SPEF "ieee 1481-1999"
*DESIGN "netlist_1"
*DATE "22:04:23 Thursday August 15, 2024"
*VENDOR "The OpenROAD Project"
*PROGRAM "OpenROAD"
*VERSION "d423155d69de7f683a23f6916ead418a615ad4ad"
*DESIGN_FLOW "NAME_SCOPE LOCAL" "PIN_CAP NONE"
*DIVIDER /
*DELIMITER :
*BUS_DELIMITER []
*T_UNIT 1 NS
*C_UNIT 1 PF
*R_UNIT 1 OHM
*L_UNIT 1 HENRY

*NAME_MAP
*3 clk
*4 in0
*5 in1
*6 in10
*7 in11
*8 in12
*9 in13
*10 in14
*11 in15
*12 in16
*13 in17
*14 in18
*15 in19
*16 in2
*17 in20
*18 in21
*19 in22
*20 in23
*21 in24
*22 in25
*23 in26
*24 in27
*25 in28
*26 in29
*27 in3
*28 in30
*29 in31
*30 in32
*31 in33
*32 in34
*33 in35
*34 in36
*35 in37
*36 in38
*37 in39
*38 in4
*39 in40
*40 in41
*41 in42
*42 in43
*43 in44
*44 in45
*45 in46
*46 in47
*47 in48
*48 in49
*49 in5
*50 in50
*51 in51
*52 in52
*53 in53
*54 in54
*55 in55
*56 in56
*57 in57
*58 in58
*59 in59
*60 in6
*61 in60
*62 in61
*63 in62
*64 in63
*65 in64
*66 in65
*67 in66
*68 in67
*69 in68
*70 in69
*71 in7
*72 in70
*73 in71
*74 in72
*75 in73
*76 in74
*77 in75
*78 in76
*79 in77
*80 in78
*81 in79
*82 in8
*83 in80
*84 in81
*85 in82
*86 in83
*87 in84
*88 in85
*89 in86
*90 in87
*91 in88
*92 in89
*93 in9
*94 in90
*95 in91
*96 in92
*97 in93
*98 in94
*99 in95
*100 in96
*101 in97
*102 in98
*103 in99
*104 out0
*105 out1
*106 out10
*107 out11
*108 out12
*109 out13
*110 out14
*111 out15
*112 out16
*113 out17
*114 out18
*115 out19
*116 out2
*117 out20
*118 out21
*119 out22
*120 out23
*121 out24
*122 out25
*123 out26
*124 out27
*125 out28
*126 out29
*127 out3
*128 out30
*129 out31
*130 out32
*131 out33
*132 out34
*133 out35
*134 out36
*135 out37
*136 out38
*137 out39
*138 out4
*139 out40
*140 out41
*141 out42
*142 out43
*143 out44
*144 out45
*145 out46
*146 out47
*147 out48
*148 out49
*149 out5
*150 out50
*151 out51
*152 out52
*153 out53
*154 out54
*155 out55
*156 out56
*157 out57
*158 out58
*159 out59
*160 out6
*161 out60
*162 out61
*163 out62
*164 out63
*165 out64
*166 out65
*167 out66
*168 out67
*169 out68
*170 out69
*171 out7
*172 out70
*173 out71
*174 out72
*175 out73
*176 out74
*177 out75
*178 out76
*179 out77
*180 out78
*181 out79
*182 out8
*183 out80
*184 out81
*185 out82
*186 out83
*187 out84
*188 out85
*189 out86
*190 out87
*191 out88
*192 out89
*193 out9
*194 out90
*195 out91
*196 out92
*197 out93
*198 out94
*199 out95
*200 out96
*201 out97
*202 out98
*203 out99
*204 rst
*205 clknet_0_clk
*206 clknet_0_net100
*207 clknet_0_net104
*208 clknet_0_net109
*209 clknet_0_net111
*210 clknet_0_net113
*211 clknet_0_net116
*212 clknet_0_net157
*213 clknet_0_net161
*214 clknet_0_net166
*215 clknet_0_net167
*216 clknet_0_net168
*217 clknet_0_net174
*218 clknet_0_net175
*219 clknet_0_net178
*220 clknet_0_net179
*221 clknet_0_net182
*222 clknet_0_net184
*223 clknet_0_net186
*224 clknet_0_net191
*225 clknet_0_net193
*226 clknet_0_net199
*227 clknet_0_net202
*228 clknet_0_net208
*229 clknet_0_net218
*230 clknet_0_net219
*231 clknet_0_net221
*232 clknet_0_net231
*233 clknet_0_net247
*234 clknet_0_net260
*235 clknet_0_net263
*236 clknet_0_net273
*237 clknet_0_net276
*238 clknet_0_net277
*239 clknet_0_net283
*240 clknet_0_net284
*241 clknet_0_net285
*242 clknet_0_net288
*243 clknet_0_net293
*244 clknet_0_net295
*245 clknet_0_net296
*246 clknet_0_net302
*247 clknet_0_net307
*248 clknet_0_net310
*249 clknet_0_net312
*250 clknet_0_net318
*251 clknet_0_net328
*252 clknet_0_net333
*253 clknet_0_net336
*254 clknet_0_net346
*255 clknet_0_net353
*256 clknet_0_net354
*257 clknet_0_net373
*258 clknet_0_net377
*259 clknet_0_net378
*260 clknet_0_net379
*261 clknet_0_net390
*262 clknet_0_net392
*263 clknet_0_net394
*264 clknet_0_net399
*265 clknet_0_net401
*266 clknet_0_net403
*267 clknet_0_net405
*268 clknet_0_net407
*269 clknet_0_net409
*270 clknet_0_net410
*271 clknet_0_net411
*272 clknet_0_net412
*273 clknet_0_net413
*274 clknet_0_net422
*275 clknet_0_net458
*276 clknet_0_net460
*277 clknet_0_net462
*278 clknet_0_net465
*279 clknet_0_net496
*280 clknet_0_net502
*281 clknet_0_net504
*282 clknet_0_net505
*283 clknet_0_net509
*284 clknet_0_net512
*285 clknet_0_net517
*286 clknet_0_net518
*287 clknet_0_net522
*288 clknet_0_net530
*289 clknet_0_net532
*290 clknet_0_net535
*291 clknet_0_net549
*292 clknet_0_net613
*293 clknet_0_net615
*294 clknet_0_net616
*295 clknet_0_net641
*296 clknet_0_net651
*297 clknet_0_net66
*298 clknet_0_net673
*299 clknet_0_net674
*300 clknet_0_net675
*301 clknet_0_net693
*302 clknet_0_net694
*303 clknet_0_net695
*304 clknet_0_net70
*305 clknet_0_net712
*306 clknet_0_net713
*307 clknet_0_net714
*308 clknet_0_net72
*309 clknet_0_net73
*310 clknet_0_net733
*311 clknet_0_net734
*312 clknet_0_net735
*313 clknet_0_net74
*314 clknet_0_net75
*315 clknet_0_net751
*316 clknet_0_net752
*317 clknet_0_net753
*318 clknet_0_net76
*319 clknet_0_net77
*320 clknet_0_net78
*321 clknet_0_net79
*322 clknet_0_net83
*323 clknet_0_net84
*324 clknet_0_net887
*325 clknet_0_net890
*326 clknet_0_net893
*327 clknet_0_net894
*328 clknet_0_net895
*329 clknet_0_net898
*330 clknet_0_net900
*331 clknet_0_net904
*332 clknet_0_net905
*333 clknet_0_net908
*334 clknet_0_net916
*335 clknet_0_net922
*336 clknet_0_net923
*337 clknet_0_net935
*338 clknet_0_net936
*339 clknet_0_net938
*340 clknet_0_net939
*341 clknet_0_net98
*342 clknet_1_0__leaf_net100
*343 clknet_1_0__leaf_net104
*344 clknet_1_0__leaf_net109
*345 clknet_1_0__leaf_net111
*346 clknet_1_0__leaf_net113
*347 clknet_1_0__leaf_net116
*348 clknet_1_0__leaf_net157
*349 clknet_1_0__leaf_net161
*350 clknet_1_0__leaf_net166
*351 clknet_1_0__leaf_net167
*352 clknet_1_0__leaf_net168
*353 clknet_1_0__leaf_net174
*354 clknet_1_0__leaf_net175
*355 clknet_1_0__leaf_net178
*356 clknet_1_0__leaf_net179
*357 clknet_1_0__leaf_net182
*358 clknet_1_0__leaf_net184
*359 clknet_1_0__leaf_net186
*360 clknet_1_0__leaf_net191
*361 clknet_1_0__leaf_net193
*362 clknet_1_0__leaf_net199
*363 clknet_1_0__leaf_net202
*364 clknet_1_0__leaf_net208
*365 clknet_1_0__leaf_net218
*366 clknet_1_0__leaf_net219
*367 clknet_1_0__leaf_net221
*368 clknet_1_0__leaf_net231
*369 clknet_1_0__leaf_net247
*370 clknet_1_0__leaf_net260
*371 clknet_1_0__leaf_net263
*372 clknet_1_0__leaf_net273
*373 clknet_1_0__leaf_net276
*374 clknet_1_0__leaf_net277
*375 clknet_1_0__leaf_net283
*376 clknet_1_0__leaf_net284
*377 clknet_1_0__leaf_net285
*378 clknet_1_0__leaf_net288
*379 clknet_1_0__leaf_net293
*380 clknet_1_0__leaf_net295
*381 clknet_1_0__leaf_net296
*382 clknet_1_0__leaf_net302
*383 clknet_1_0__leaf_net307
*384 clknet_1_0__leaf_net310
*385 clknet_1_0__leaf_net312
*386 clknet_1_0__leaf_net318
*387 clknet_1_0__leaf_net328
*388 clknet_1_0__leaf_net333
*389 clknet_1_0__leaf_net336
*390 clknet_1_0__leaf_net346
*391 clknet_1_0__leaf_net353
*392 clknet_1_0__leaf_net354
*393 clknet_1_0__leaf_net373
*394 clknet_1_0__leaf_net377
*395 clknet_1_0__leaf_net378
*396 clknet_1_0__leaf_net379
*397 clknet_1_0__leaf_net390
*398 clknet_1_0__leaf_net392
*399 clknet_1_0__leaf_net394
*400 clknet_1_0__leaf_net399
*401 clknet_1_0__leaf_net401
*402 clknet_1_0__leaf_net403
*403 clknet_1_0__leaf_net405
*404 clknet_1_0__leaf_net407
*405 clknet_1_0__leaf_net409
*406 clknet_1_0__leaf_net410
*407 clknet_1_0__leaf_net411
*408 clknet_1_0__leaf_net412
*409 clknet_1_0__leaf_net413
*410 clknet_1_0__leaf_net422
*411 clknet_1_0__leaf_net458
*412 clknet_1_0__leaf_net460
*413 clknet_1_0__leaf_net462
*414 clknet_1_0__leaf_net465
*415 clknet_1_0__leaf_net496
*416 clknet_1_0__leaf_net502
*417 clknet_1_0__leaf_net504
*418 clknet_1_0__leaf_net505
*419 clknet_1_0__leaf_net509
*420 clknet_1_0__leaf_net512
*421 clknet_1_0__leaf_net517
*422 clknet_1_0__leaf_net518
*423 clknet_1_0__leaf_net522
*424 clknet_1_0__leaf_net530
*425 clknet_1_0__leaf_net532
*426 clknet_1_0__leaf_net535
*427 clknet_1_0__leaf_net549
*428 clknet_1_0__leaf_net613
*429 clknet_1_0__leaf_net615
*430 clknet_1_0__leaf_net616
*431 clknet_1_0__leaf_net641
*432 clknet_1_0__leaf_net651
*433 clknet_1_0__leaf_net66
*434 clknet_1_0__leaf_net673
*435 clknet_1_0__leaf_net674
*436 clknet_1_0__leaf_net675
*437 clknet_1_0__leaf_net693
*438 clknet_1_0__leaf_net694
*439 clknet_1_0__leaf_net695
*440 clknet_1_0__leaf_net70
*441 clknet_1_0__leaf_net712
*442 clknet_1_0__leaf_net713
*443 clknet_1_0__leaf_net714
*444 clknet_1_0__leaf_net72
*445 clknet_1_0__leaf_net73
*446 clknet_1_0__leaf_net733
*447 clknet_1_0__leaf_net734
*448 clknet_1_0__leaf_net735
*449 clknet_1_0__leaf_net74
*450 clknet_1_0__leaf_net75
*451 clknet_1_0__leaf_net751
*452 clknet_1_0__leaf_net752
*453 clknet_1_0__leaf_net753
*454 clknet_1_0__leaf_net76
*455 clknet_1_0__leaf_net77
*456 clknet_1_0__leaf_net78
*457 clknet_1_0__leaf_net79
*458 clknet_1_0__leaf_net83
*459 clknet_1_0__leaf_net84
*460 clknet_1_0__leaf_net887
*461 clknet_1_0__leaf_net890
*462 clknet_1_0__leaf_net893
*463 clknet_1_0__leaf_net894
*464 clknet_1_0__leaf_net895
*465 clknet_1_0__leaf_net898
*466 clknet_1_0__leaf_net900
*467 clknet_1_0__leaf_net904
*468 clknet_1_0__leaf_net905
*469 clknet_1_0__leaf_net908
*470 clknet_1_0__leaf_net916
*471 clknet_1_0__leaf_net922
*472 clknet_1_0__leaf_net923
*473 clknet_1_0__leaf_net935
*474 clknet_1_0__leaf_net936
*475 clknet_1_0__leaf_net938
*476 clknet_1_0__leaf_net939
*477 clknet_1_0__leaf_net98
*478 clknet_1_1__leaf_net100
*479 clknet_1_1__leaf_net104
*480 clknet_1_1__leaf_net109
*481 clknet_1_1__leaf_net111
*482 clknet_1_1__leaf_net113
*483 clknet_1_1__leaf_net116
*484 clknet_1_1__leaf_net157
*485 clknet_1_1__leaf_net161
*486 clknet_1_1__leaf_net166
*487 clknet_1_1__leaf_net167
*488 clknet_1_1__leaf_net168
*489 clknet_1_1__leaf_net174
*490 clknet_1_1__leaf_net175
*491 clknet_1_1__leaf_net178
*492 clknet_1_1__leaf_net179
*493 clknet_1_1__leaf_net182
*494 clknet_1_1__leaf_net184
*495 clknet_1_1__leaf_net186
*496 clknet_1_1__leaf_net191
*497 clknet_1_1__leaf_net193
*498 clknet_1_1__leaf_net199
*499 clknet_1_1__leaf_net202
*500 clknet_1_1__leaf_net208
*501 clknet_1_1__leaf_net218
*502 clknet_1_1__leaf_net219
*503 clknet_1_1__leaf_net221
*504 clknet_1_1__leaf_net231
*505 clknet_1_1__leaf_net247
*506 clknet_1_1__leaf_net260
*507 clknet_1_1__leaf_net263
*508 clknet_1_1__leaf_net273
*509 clknet_1_1__leaf_net276
*510 clknet_1_1__leaf_net277
*511 clknet_1_1__leaf_net283
*512 clknet_1_1__leaf_net284
*513 clknet_1_1__leaf_net285
*514 clknet_1_1__leaf_net288
*515 clknet_1_1__leaf_net293
*516 clknet_1_1__leaf_net295
*517 clknet_1_1__leaf_net296
*518 clknet_1_1__leaf_net302
*519 clknet_1_1__leaf_net307
*520 clknet_1_1__leaf_net310
*521 clknet_1_1__leaf_net312
*522 clknet_1_1__leaf_net318
*523 clknet_1_1__leaf_net328
*524 clknet_1_1__leaf_net333
*525 clknet_1_1__leaf_net336
*526 clknet_1_1__leaf_net346
*527 clknet_1_1__leaf_net353
*528 clknet_1_1__leaf_net354
*529 clknet_1_1__leaf_net373
*530 clknet_1_1__leaf_net377
*531 clknet_1_1__leaf_net378
*532 clknet_1_1__leaf_net379
*533 clknet_1_1__leaf_net390
*534 clknet_1_1__leaf_net392
*535 clknet_1_1__leaf_net394
*536 clknet_1_1__leaf_net399
*537 clknet_1_1__leaf_net401
*538 clknet_1_1__leaf_net403
*539 clknet_1_1__leaf_net405
*540 clknet_1_1__leaf_net407
*541 clknet_1_1__leaf_net409
*542 clknet_1_1__leaf_net410
*543 clknet_1_1__leaf_net411
*544 clknet_1_1__leaf_net412
*545 clknet_1_1__leaf_net413
*546 clknet_1_1__leaf_net422
*547 clknet_1_1__leaf_net458
*548 clknet_1_1__leaf_net460
*549 clknet_1_1__leaf_net462
*550 clknet_1_1__leaf_net465
*551 clknet_1_1__leaf_net496
*552 clknet_1_1__leaf_net502
*553 clknet_1_1__leaf_net504
*554 clknet_1_1__leaf_net505
*555 clknet_1_1__leaf_net509
*556 clknet_1_1__leaf_net512
*557 clknet_1_1__leaf_net517
*558 clknet_1_1__leaf_net518
*559 clknet_1_1__leaf_net522
*560 clknet_1_1__leaf_net530
*561 clknet_1_1__leaf_net532
*562 clknet_1_1__leaf_net535
*563 clknet_1_1__leaf_net549
*564 clknet_1_1__leaf_net613
*565 clknet_1_1__leaf_net615
*566 clknet_1_1__leaf_net616
*567 clknet_1_1__leaf_net641
*568 clknet_1_1__leaf_net651
*569 clknet_1_1__leaf_net66
*570 clknet_1_1__leaf_net673
*571 clknet_1_1__leaf_net674
*572 clknet_1_1__leaf_net675
*573 clknet_1_1__leaf_net693
*574 clknet_1_1__leaf_net694
*575 clknet_1_1__leaf_net695
*576 clknet_1_1__leaf_net70
*577 clknet_1_1__leaf_net712
*578 clknet_1_1__leaf_net713
*579 clknet_1_1__leaf_net714
*580 clknet_1_1__leaf_net72
*581 clknet_1_1__leaf_net73
*582 clknet_1_1__leaf_net733
*583 clknet_1_1__leaf_net734
*584 clknet_1_1__leaf_net735
*585 clknet_1_1__leaf_net74
*586 clknet_1_1__leaf_net75
*587 clknet_1_1__leaf_net751
*588 clknet_1_1__leaf_net752
*589 clknet_1_1__leaf_net753
*590 clknet_1_1__leaf_net76
*591 clknet_1_1__leaf_net77
*592 clknet_1_1__leaf_net78
*593 clknet_1_1__leaf_net79
*594 clknet_1_1__leaf_net83
*595 clknet_1_1__leaf_net84
*596 clknet_1_1__leaf_net887
*597 clknet_1_1__leaf_net890
*598 clknet_1_1__leaf_net893
*599 clknet_1_1__leaf_net894
*600 clknet_1_1__leaf_net895
*601 clknet_1_1__leaf_net898
*602 clknet_1_1__leaf_net900
*603 clknet_1_1__leaf_net904
*604 clknet_1_1__leaf_net905
*605 clknet_1_1__leaf_net908
*606 clknet_1_1__leaf_net916
*607 clknet_1_1__leaf_net922
*608 clknet_1_1__leaf_net923
*609 clknet_1_1__leaf_net935
*610 clknet_1_1__leaf_net936
*611 clknet_1_1__leaf_net938
*612 clknet_1_1__leaf_net939
*613 clknet_1_1__leaf_net98
*614 clknet_4_0_0_clk
*615 clknet_4_10_0_clk
*616 clknet_4_11_0_clk
*617 clknet_4_12_0_clk
*618 clknet_4_13_0_clk
*619 clknet_4_14_0_clk
*620 clknet_4_15_0_clk
*621 clknet_4_1_0_clk
*622 clknet_4_2_0_clk
*623 clknet_4_3_0_clk
*624 clknet_4_4_0_clk
*625 clknet_4_5_0_clk
*626 clknet_4_6_0_clk
*627 clknet_4_7_0_clk
*628 clknet_4_8_0_clk
*629 clknet_4_9_0_clk
*630 net0
*631 net1
*632 net10
*633 net100
*634 net1000
*635 net1001
*636 net1002
*637 net1003
*638 net1004
*639 net1005
*640 net1006
*641 net1007
*642 net1008
*643 net1009
*644 net101
*645 net1010
*646 net1011
*647 net1012
*648 net1013
*649 net1014
*650 net1015
*651 net1016
*652 net1017
*653 net1018
*654 net1019
*655 net102
*656 net1020
*657 net1021
*658 net1022
*659 net1023
*660 net1024
*661 net1025
*662 net1026
*663 net1027
*664 net1028
*665 net1029
*666 net103
*667 net1030
*668 net1031
*669 net1032
*670 net1033
*671 net1034
*672 net1035
*673 net1036
*674 net1037
*675 net1038
*676 net1039
*677 net104
*678 net1040
*679 net1041
*680 net1042
*681 net1043
*682 net1044
*683 net1045
*684 net1046
*685 net1047
*686 net1048
*687 net1049
*688 net105
*689 net1050
*690 net1051
*691 net1052
*692 net1053
*693 net1054
*694 net1055
*695 net1056
*696 net1057
*697 net1058
*698 net1059
*699 net106
*700 net1060
*701 net1061
*702 net1062
*703 net1063
*704 net1064
*705 net1065
*706 net1066
*707 net1067
*708 net1068
*709 net1069
*710 net107
*711 net1070
*712 net1071
*713 net1072
*714 net1073
*715 net1074
*716 net1075
*717 net1076
*718 net1077
*719 net1078
*720 net1079
*721 net108
*722 net1080
*723 net1081
*724 net1082
*725 net1083
*726 net1084
*727 net1085
*728 net1086
*729 net1087
*730 net1088
*731 net1089
*732 net109
*733 net1090
*734 net1091
*735 net1092
*736 net1093
*737 net1094
*738 net1095
*739 net1096
*740 net1097
*741 net1098
*742 net1099
*743 net11
*744 net110
*745 net1108
*746 net111
*747 net112
*748 net113
*749 net114
*750 net115
*751 net116
*752 net117
*753 net118
*754 net119
*755 net12
*756 net120
*757 net121
*758 net122
*759 net123
*760 net124
*761 net125
*762 net126
*763 net127
*764 net128
*765 net129
*766 net13
*767 net130
*768 net131
*769 net132
*770 net133
*771 net134
*772 net135
*773 net136
*774 net137
*775 net138
*776 net139
*777 net14
*778 net140
*779 net141
*780 net142
*781 net143
*782 net144
*783 net145
*784 net146
*785 net147
*786 net148
*787 net149
*788 net15
*789 net150
*790 net151
*791 net152
*792 net153
*793 net154
*794 net155
*795 net156
*796 net157
*797 net158
*798 net159
*799 net16
*800 net160
*801 net161
*802 net162
*803 net163
*804 net164
*805 net165
*806 net166
*807 net167
*808 net168
*809 net169
*810 net17
*811 net170
*812 net171
*813 net172
*814 net173
*815 net174
*816 net175
*817 net176
*818 net177
*819 net178
*820 net179
*821 net18
*822 net180
*823 net181
*824 net182
*825 net183
*826 net184
*827 net185
*828 net186
*829 net187
*830 net188
*831 net189
*832 net19
*833 net190
*834 net191
*835 net192
*836 net193
*837 net194
*838 net195
*839 net196
*840 net197
*841 net198
*842 net199
*843 net2
*844 net20
*845 net200
*846 net201
*847 net202
*848 net203
*849 net204
*850 net205
*851 net206
*852 net207
*853 net208
*854 net209
*855 net21
*856 net210
*857 net211
*858 net212
*859 net213
*860 net214
*861 net215
*862 net216
*863 net217
*864 net218
*865 net219
*866 net22
*867 net220
*868 net221
*869 net222
*870 net223
*871 net224
*872 net225
*873 net226
*874 net227
*875 net228
*876 net229
*877 net23
*878 net230
*879 net231
*880 net232
*881 net233
*882 net234
*883 net235
*884 net236
*885 net237
*886 net238
*887 net239
*888 net24
*889 net240
*890 net241
*891 net242
*892 net243
*893 net244
*894 net245
*895 net246
*896 net247
*897 net248
*898 net249
*899 net25
*900 net250
*901 net251
*902 net252
*903 net253
*904 net254
*905 net255
*906 net256
*907 net257
*908 net258
*909 net259
*910 net26
*911 net260
*912 net261
*913 net262
*914 net263
*915 net264
*916 net265
*917 net266
*918 net267
*919 net268
*920 net269
*921 net27
*922 net270
*923 net271
*924 net272
*925 net273
*926 net274
*927 net275
*928 net276
*929 net277
*930 net278
*931 net279
*932 net28
*933 net280
*934 net281
*935 net282
*936 net283
*937 net284
*938 net285
*939 net286
*940 net287
*941 net288
*942 net289
*943 net29
*944 net290
*945 net291
*946 net292
*947 net293
*948 net294
*949 net295
*950 net296
*951 net297
*952 net298
*953 net299
*954 net3
*955 net30
*956 net300
*957 net301
*958 net302
*959 net303
*960 net304
*961 net305
*962 net306
*963 net307
*964 net308
*965 net309
*966 net31
*967 net310
*968 net311
*969 net312
*970 net313
*971 net314
*972 net315
*973 net316
*974 net317
*975 net318
*976 net319
*977 net32
*978 net320
*979 net321
*980 net322
*981 net323
*982 net324
*983 net325
*984 net326
*985 net327
*986 net328
*987 net329
*988 net33
*989 net330
*990 net331
*991 net332
*992 net333
*993 net334
*994 net335
*995 net336
*996 net337
*997 net338
*998 net339
*999 net34
*1000 net340
*1001 net341
*1002 net342
*1003 net343
*1004 net344
*1005 net345
*1006 net346
*1007 net347
*1008 net348
*1009 net349
*1010 net35
*1011 net350
*1012 net351
*1013 net352
*1014 net353
*1015 net354
*1016 net355
*1017 net356
*1018 net357
*1019 net358
*1020 net359
*1021 net36
*1022 net360
*1023 net361
*1024 net362
*1025 net363
*1026 net364
*1027 net365
*1028 net366
*1029 net367
*1030 net368
*1031 net369
*1032 net37
*1033 net370
*1034 net371
*1035 net372
*1036 net373
*1037 net374
*1038 net375
*1039 net376
*1040 net377
*1041 net378
*1042 net379
*1043 net38
*1044 net380
*1045 net381
*1046 net382
*1047 net383
*1048 net384
*1049 net385
*1050 net386
*1051 net387
*1052 net388
*1053 net389
*1054 net39
*1055 net390
*1056 net391
*1057 net392
*1058 net393
*1059 net394
*1060 net395
*1061 net396
*1062 net397
*1063 net398
*1064 net399
*1065 net4
*1066 net40
*1067 net400
*1068 net401
*1069 net402
*1070 net403
*1071 net404
*1072 net405
*1073 net406
*1074 net407
*1075 net408
*1076 net409
*1077 net41
*1078 net410
*1079 net411
*1080 net412
*1081 net413
*1082 net414
*1083 net415
*1084 net416
*1085 net417
*1086 net418
*1087 net419
*1088 net42
*1089 net420
*1090 net421
*1091 net422
*1092 net423
*1093 net424
*1094 net425
*1095 net426
*1096 net427
*1097 net428
*1098 net429
*1099 net43
*1100 net430
*1101 net431
*1102 net432
*1103 net433
*1104 net434
*1105 net435
*1106 net436
*1107 net437
*1108 net438
*1109 net439
*1110 net44
*1111 net440
*1112 net441
*1113 net442
*1114 net443
*1115 net444
*1116 net445
*1117 net446
*1118 net447
*1119 net448
*1120 net449
*1121 net45
*1122 net450
*1123 net451
*1124 net452
*1125 net453
*1126 net454
*1127 net455
*1128 net456
*1129 net457
*1130 net458
*1131 net459
*1132 net46
*1133 net460
*1134 net461
*1135 net462
*1136 net463
*1137 net464
*1138 net465
*1139 net466
*1140 net467
*1141 net468
*1142 net469
*1143 net47
*1144 net470
*1145 net471
*1146 net472
*1147 net473
*1148 net474
*1149 net475
*1150 net476
*1151 net477
*1152 net478
*1153 net479
*1154 net48
*1155 net480
*1156 net481
*1157 net482
*1158 net483
*1159 net484
*1160 net485
*1161 net486
*1162 net487
*1163 net488
*1164 net489
*1165 net49
*1166 net490
*1167 net491
*1168 net492
*1169 net493
*1170 net494
*1171 net495
*1172 net496
*1173 net497
*1174 net498
*1175 net499
*1176 net5
*1177 net50
*1178 net500
*1179 net501
*1180 net502
*1181 net503
*1182 net504
*1183 net505
*1184 net506
*1185 net507
*1186 net508
*1187 net509
*1188 net51
*1189 net510
*1190 net511
*1191 net512
*1192 net513
*1193 net514
*1194 net515
*1195 net516
*1196 net517
*1197 net518
*1198 net519
*1199 net52
*1200 net520
*1201 net521
*1202 net522
*1203 net523
*1204 net524
*1205 net525
*1206 net526
*1207 net527
*1208 net528
*1209 net529
*1210 net53
*1211 net530
*1212 net531
*1213 net532
*1214 net533
*1215 net534
*1216 net535
*1217 net536
*1218 net537
*1219 net538
*1220 net539
*1221 net54
*1222 net540
*1223 net541
*1224 net542
*1225 net543
*1226 net544
*1227 net545
*1228 net546
*1229 net547
*1230 net548
*1231 net549
*1232 net55
*1233 net550
*1234 net551
*1235 net552
*1236 net553
*1237 net554
*1238 net555
*1239 net556
*1240 net557
*1241 net558
*1242 net559
*1243 net56
*1244 net560
*1245 net561
*1246 net562
*1247 net563
*1248 net564
*1249 net565
*1250 net566
*1251 net567
*1252 net568
*1253 net569
*1254 net57
*1255 net570
*1256 net571
*1257 net572
*1258 net573
*1259 net574
*1260 net575
*1261 net576
*1262 net577
*1263 net578
*1264 net579
*1265 net58
*1266 net580
*1267 net581
*1268 net582
*1269 net583
*1270 net584
*1271 net585
*1272 net586
*1273 net587
*1274 net588
*1275 net589
*1276 net59
*1277 net590
*1278 net591
*1279 net592
*1280 net593
*1281 net594
*1282 net595
*1283 net596
*1284 net597
*1285 net598
*1286 net599
*1287 net6
*1288 net60
*1289 net600
*1290 net601
*1291 net602
*1292 net603
*1293 net604
*1294 net605
*1295 net606
*1296 net607
*1297 net608
*1298 net609
*1299 net61
*1300 net610
*1301 net611
*1302 net612
*1303 net613
*1304 net614
*1305 net615
*1306 net616
*1307 net617
*1308 net618
*1309 net619
*1310 net62
*1311 net620
*1312 net621
*1313 net622
*1314 net623
*1315 net624
*1316 net625
*1317 net626
*1318 net627
*1319 net628
*1320 net629
*1321 net63
*1322 net630
*1323 net631
*1324 net632
*1325 net633
*1326 net634
*1327 net635
*1328 net636
*1329 net637
*1330 net638
*1331 net639
*1332 net64
*1333 net640
*1334 net641
*1335 net642
*1336 net643
*1337 net644
*1338 net645
*1339 net646
*1340 net647
*1341 net648
*1342 net649
*1343 net65
*1344 net650
*1345 net651
*1346 net652
*1347 net653
*1348 net654
*1349 net655
*1350 net656
*1351 net657
*1352 net658
*1353 net659
*1354 net66
*1355 net660
*1356 net661
*1357 net662
*1358 net663
*1359 net664
*1360 net665
*1361 net666
*1362 net667
*1363 net668
*1364 net669
*1365 net67
*1366 net670
*1367 net671
*1368 net672
*1369 net673
*1370 net674
*1371 net675
*1372 net676
*1373 net677
*1374 net678
*1375 net679
*1376 net68
*1377 net680
*1378 net681
*1379 net682
*1380 net683
*1381 net684
*1382 net685
*1383 net686
*1384 net687
*1385 net688
*1386 net689
*1387 net69
*1388 net690
*1389 net691
*1390 net692
*1391 net693
*1392 net694
*1393 net695
*1394 net696
*1395 net697
*1396 net698
*1397 net699
*1398 net7
*1399 net70
*1400 net700
*1401 net701
*1402 net702
*1403 net703
*1404 net704
*1405 net705
*1406 net706
*1407 net707
*1408 net708
*1409 net709
*1410 net71
*1411 net710
*1412 net711
*1413 net712
*1414 net713
*1415 net714
*1416 net715
*1417 net716
*1418 net717
*1419 net718
*1420 net719
*1421 net72
*1422 net720
*1423 net721
*1424 net722
*1425 net723
*1426 net724
*1427 net725
*1428 net726
*1429 net727
*1430 net728
*1431 net729
*1432 net73
*1433 net730
*1434 net731
*1435 net732
*1436 net733
*1437 net734
*1438 net735
*1439 net736
*1440 net737
*1441 net738
*1442 net739
*1443 net74
*1444 net740
*1445 net741
*1446 net742
*1447 net743
*1448 net744
*1449 net745
*1450 net746
*1451 net747
*1452 net748
*1453 net749
*1454 net75
*1455 net750
*1456 net751
*1457 net752
*1458 net753
*1459 net754
*1460 net755
*1461 net756
*1462 net757
*1463 net758
*1464 net759
*1465 net76
*1466 net760
*1467 net761
*1468 net762
*1469 net763
*1470 net764
*1471 net765
*1472 net766
*1473 net767
*1474 net768
*1475 net769
*1476 net77
*1477 net770
*1478 net771
*1479 net772
*1480 net773
*1481 net774
*1482 net775
*1483 net776
*1484 net777
*1485 net778
*1486 net779
*1487 net78
*1488 net780
*1489 net781
*1490 net782
*1491 net783
*1492 net784
*1493 net785
*1494 net786
*1495 net787
*1496 net788
*1497 net789
*1498 net79
*1499 net790
*1500 net791
*1501 net792
*1502 net793
*1503 net794
*1504 net795
*1505 net796
*1506 net797
*1507 net798
*1508 net799
*1509 net8
*1510 net80
*1511 net800
*1512 net801
*1513 net802
*1514 net803
*1515 net804
*1516 net805
*1517 net806
*1518 net807
*1519 net808
*1520 net809
*1521 net81
*1522 net810
*1523 net811
*1524 net812
*1525 net813
*1526 net814
*1527 net815
*1528 net816
*1529 net817
*1530 net818
*1531 net819
*1532 net82
*1533 net820
*1534 net821
*1535 net822
*1536 net823
*1537 net824
*1538 net825
*1539 net826
*1540 net827
*1541 net828
*1542 net829
*1543 net83
*1544 net830
*1545 net831
*1546 net832
*1547 net833
*1548 net834
*1549 net835
*1550 net836
*1551 net837
*1552 net838
*1553 net839
*1554 net84
*1555 net840
*1556 net841
*1557 net842
*1558 net843
*1559 net844
*1560 net845
*1561 net846
*1562 net847
*1563 net848
*1564 net849
*1565 net85
*1566 net850
*1567 net851
*1568 net852
*1569 net853
*1570 net854
*1571 net855
*1572 net856
*1573 net857
*1574 net858
*1575 net859
*1576 net86
*1577 net860
*1578 net861
*1579 net862
*1580 net863
*1581 net864
*1582 net865
*1583 net866
*1584 net867
*1585 net868
*1586 net869
*1587 net87
*1588 net870
*1589 net871
*1590 net872
*1591 net873
*1592 net874
*1593 net875
*1594 net876
*1595 net877
*1596 net878
*1597 net879
*1598 net88
*1599 net880
*1600 net881
*1601 net882
*1602 net883
*1603 net884
*1604 net885
*1605 net886
*1606 net887
*1607 net888
*1608 net889
*1609 net89
*1610 net890
*1611 net891
*1612 net892
*1613 net893
*1614 net894
*1615 net895
*1616 net896
*1617 net897
*1618 net898
*1619 net899
*1620 net9
*1621 net90
*1622 net900
*1623 net901
*1624 net902
*1625 net903
*1626 net904
*1627 net905
*1628 net906
*1629 net907
*1630 net908
*1631 net909
*1632 net91
*1633 net910
*1634 net911
*1635 net912
*1636 net913
*1637 net914
*1638 net915
*1639 net916
*1640 net917
*1641 net918
*1642 net919
*1643 net92
*1644 net920
*1645 net921
*1646 net922
*1647 net923
*1648 net924
*1649 net925
*1650 net926
*1651 net927
*1652 net928
*1653 net929
*1654 net93
*1655 net930
*1656 net931
*1657 net932
*1658 net933
*1659 net934
*1660 net935
*1661 net936
*1662 net937
*1663 net938
*1664 net939
*1665 net94
*1666 net940
*1667 net941
*1668 net942
*1669 net943
*1670 net944
*1671 net945
*1672 net946
*1673 net947
*1674 net948
*1675 net949
*1676 net95
*1677 net950
*1678 net951
*1679 net952
*1680 net953
*1681 net954
*1682 net955
*1683 net956
*1684 net957
*1685 net958
*1686 net959
*1687 net96
*1688 net960
*1689 net961
*1690 net962
*1691 net963
*1692 net964
*1693 net965
*1694 net966
*1695 net967
*1696 net968
*1697 net969
*1698 net97
*1699 net970
*1700 net971
*1701 net972
*1702 net973
*1703 net974
*1704 net975
*1705 net976
*1706 net977
*1707 net978
*1708 net979
*1709 net98
*1710 net980
*1711 net981
*1712 net982
*1713 net983
*1714 net984
*1715 net985
*1716 net986
*1717 net987
*1718 net988
*1719 net989
*1720 net99
*1721 net990
*1722 net991
*1723 net992
*1724 net993
*1725 net994
*1726 net995
*1727 net996
*1728 net997
*1729 net998
*1730 net999
*1731 ANTENNA_1
*1732 ANTENNA_2
*1733 ANTENNA_3
*1734 ANTENNA_c100_A0
*1735 ANTENNA_c100_A1
*1736 ANTENNA_c100_A2
*1737 ANTENNA_c100_A3
*1738 ANTENNA_c100_S1
*1739 ANTENNA_c100_X
*1740 ANTENNA_c101_A3
*1741 ANTENNA_c101_S0
*1742 ANTENNA_c101_X
*1743 ANTENNA_c102_A0
*1744 ANTENNA_c102_A1
*1745 ANTENNA_c102_A2
*1746 ANTENNA_c102_X
*1747 ANTENNA_c103_A2
*1748 ANTENNA_c103_A3
*1749 ANTENNA_c103_S1
*1750 ANTENNA_c103_X
*1751 ANTENNA_c104_A0
*1752 ANTENNA_c104_A1
*1753 ANTENNA_c104_S0
*1754 ANTENNA_c104_S1
*1755 ANTENNA_c104_X
*1756 ANTENNA_c105_A0
*1757 ANTENNA_c105_A1
*1758 ANTENNA_c105_A2
*1759 ANTENNA_c105_S0
*1760 ANTENNA_c105_S1
*1761 ANTENNA_c106_S0
*1762 ANTENNA_c106_S1
*1763 ANTENNA_c106_X
*1764 ANTENNA_c107_A0
*1765 ANTENNA_c107_A2
*1766 ANTENNA_c107_S0
*1767 ANTENNA_c107_S1
*1768 ANTENNA_c108_A0
*1769 ANTENNA_c108_A1
*1770 ANTENNA_c108_S0
*1771 ANTENNA_c108_S1
*1772 ANTENNA_c109_A0
*1773 ANTENNA_c109_A3
*1774 ANTENNA_c109_S1
*1775 ANTENNA_c110_A2
*1776 ANTENNA_c110_B1
*1777 ANTENNA_c110_C1
*1778 ANTENNA_c110_D1
*1779 ANTENNA_c111_A1
*1780 ANTENNA_c111_A2
*1781 ANTENNA_c111_B1
*1782 ANTENNA_c111_C1
*1783 ANTENNA_c111_D1
*1784 ANTENNA_c112_A1
*1785 ANTENNA_c112_A2
*1786 ANTENNA_c112_B1
*1787 ANTENNA_c112_C1
*1788 ANTENNA_c112_D1
*1789 ANTENNA_c113_C1
*1790 ANTENNA_c113_D1
*1791 ANTENNA_c114_A
*1792 ANTENNA_c114_B
*1793 ANTENNA_c115_A1
*1794 ANTENNA_c115_B1
*1795 ANTENNA_c115_D1
*1796 ANTENNA_c116_B1
*1797 ANTENNA_c116_C1
*1798 ANTENNA_c116_D1
*1799 ANTENNA_c117_D1
*1800 ANTENNA_c118_D1
*1801 ANTENNA_c119_A1
*1802 ANTENNA_c119_B1
*1803 ANTENNA_c119_C1
*1804 ANTENNA_c120_A1
*1805 ANTENNA_c120_B1
*1806 ANTENNA_c120_C1
*1807 ANTENNA_c121_A2
*1808 ANTENNA_c121_A3
*1809 ANTENNA_c121_S0
*1810 ANTENNA_c121_S1
*1811 ANTENNA_c122_A1
*1812 ANTENNA_c122_A2
*1813 ANTENNA_c124_S1
*1814 ANTENNA_c125_B1
*1815 ANTENNA_c127_A2
*1816 ANTENNA_c127_S0
*1817 ANTENNA_c127_S1
*1818 ANTENNA_c128_A3
*1819 ANTENNA_c129_A0
*1820 ANTENNA_c129_S0
*1821 ANTENNA_c129_S1
*1822 ANTENNA_c130_A3
*1823 ANTENNA_c131_A3
*1824 ANTENNA_c132_A
*1825 ANTENNA_c132_B
*1826 ANTENNA_c132_C_N
*1827 ANTENNA_c132_D_N
*1828 ANTENNA_c133_A1
*1829 ANTENNA_c133_A2
*1830 ANTENNA_c133_B1
*1831 ANTENNA_c133_C1
*1832 ANTENNA_c133_X
*1833 ANTENNA_c134_A1
*1834 ANTENNA_c134_A2
*1835 ANTENNA_c134_B1
*1836 ANTENNA_c134_C1
*1837 ANTENNA_c134_D1
*1838 ANTENNA_c134_X
*1839 ANTENNA_c135_A0
*1840 ANTENNA_c135_A2
*1841 ANTENNA_c135_A3
*1842 ANTENNA_c135_S0
*1843 ANTENNA_c135_S1
*1844 ANTENNA_c135_X
*1845 ANTENNA_c136_A1
*1846 ANTENNA_c136_A2
*1847 ANTENNA_c136_B1
*1848 ANTENNA_c136_D1
*1849 ANTENNA_c136_X
*1850 ANTENNA_c137_A1
*1851 ANTENNA_c137_C1