*SPEF "ieee 1481-1999"
*DESIGN "netlist_1"
*DATE "13:47:51 Friday August 16, 2024"
*VENDOR "The OpenROAD Project"
*PROGRAM "OpenROAD"
*VERSION "d423155d69de7f683a23f6916ead418a615ad4ad"
*DESIGN_FLOW "NAME_SCOPE LOCAL" "PIN_CAP NONE"
*DIVIDER /
*DELIMITER :
*BUS_DELIMITER []
*T_UNIT 1 NS
*C_UNIT 1 PF
*R_UNIT 1 OHM
*L_UNIT 1 HENRY

*NAME_MAP
*3 clk
*4 in0
*5 in1
*6 in10
*7 in11
*8 in12
*9 in13
*10 in14
*11 in15
*12 in16
*13 in17
*14 in18
*15 in19
*16 in2
*17 in20
*18 in21
*19 in22
*20 in23
*21 in24
*22 in25
*23 in26
*24 in27
*25 in28
*26 in29
*27 in3
*28 in30
*29 in31
*30 in32
*31 in33
*32 in34
*33 in35
*34 in36
*35 in37
*36 in38
*37 in39
*38 in4
*39 in40
*40 in41
*41 in42
*42 in43
*43 in44
*44 in45
*45 in46
*46 in47
*47 in48
*48 in49
*49 in5
*50 in50
*51 in51
*52 in52
*53 in53
*54 in54
*55 in55
*56 in56
*57 in57
*58 in58
*59 in59
*60 in6
*61 in60
*62 in61
*63 in62
*64 in63
*65 in64
*66 in65
*67 in66
*68 in67
*69 in68
*70 in69
*71 in7
*72 in70
*73 in71
*74 in72
*75 in73
*76 in74
*77 in75
*78 in76
*79 in77
*80 in78
*81 in79
*82 in8
*83 in80
*84 in81
*85 in82
*86 in83
*87 in84
*88 in85
*89 in86
*90 in87
*91 in88
*92 in89
*93 in9
*94 in90
*95 in91
*96 in92
*97 in93
*98 in94
*99 in95
*100 in96
*101 in97
*102 in98
*103 in99
*104 out0
*105 out1
*106 out10
*107 out11
*108 out12
*109 out13
*110 out14
*111 out15
*112 out16
*113 out17
*114 out18
*115 out19
*116 out2
*117 out20
*118 out21
*119 out22
*120 out23
*121 out24
*122 out25
*123 out26
*124 out27
*125 out28
*126 out29
*127 out3
*128 out30
*129 out31
*130 out32
*131 out33
*132 out34
*133 out35
*134 out36
*135 out37
*136 out38
*137 out39
*138 out4
*139 out40
*140 out41
*141 out42
*142 out43
*143 out44
*144 out45
*145 out46
*146 out47
*147 out48
*148 out49
*149 out5
*150 out50
*151 out51
*152 out52
*153 out53
*154 out54
*155 out55
*156 out56
*157 out57
*158 out58
*159 out59
*160 out6
*161 out60
*162 out61
*163 out62
*164 out63
*165 out64
*166 out65
*167 out66
*168 out67
*169 out68
*170 out69
*171 out7
*172 out70
*173 out71
*174 out72
*175 out73
*176 out74
*177 out75
*178 out76
*179 out77
*180 out78
*181 out79
*182 out8
*183 out80
*184 out81
*185 out82
*186 out83
*187 out84
*188 out85
*189 out86
*190 out87
*191 out88
*192 out89
*193 out9
*194 out90
*195 out91
*196 out92
*197 out93
*198 out94
*199 out95
*200 out96
*201 out97
*202 out98
*203 out99
*204 rst
*205 clknet_0_clk
*206 clknet_0_net105
*207 clknet_0_net107
*208 clknet_0_net109
*209 clknet_0_net203
*210 clknet_0_net205
*211 clknet_0_net216
*212 clknet_0_net246
*213 clknet_0_net250
*214 clknet_0_net302
*215 clknet_0_net310
*216 clknet_0_net316
*217 clknet_0_net318
*218 clknet_0_net319
*219 clknet_0_net341
*220 clknet_0_net342
*221 clknet_0_net343
*222 clknet_0_net347
*223 clknet_0_net348
*224 clknet_0_net349
*225 clknet_0_net352
*226 clknet_0_net353
*227 clknet_0_net357
*228 clknet_0_net358
*229 clknet_0_net366
*230 clknet_0_net367
*231 clknet_0_net370
*232 clknet_0_net372
*233 clknet_0_net375
*234 clknet_0_net377
*235 clknet_0_net380
*236 clknet_0_net403
*237 clknet_0_net407
*238 clknet_0_net429
*239 clknet_0_net443
*240 clknet_0_net444
*241 clknet_0_net446
*242 clknet_0_net447
*243 clknet_0_net451
*244 clknet_0_net455
*245 clknet_0_net456
*246 clknet_0_net457
*247 clknet_0_net458
*248 clknet_0_net463
*249 clknet_0_net469
*250 clknet_0_net481
*251 clknet_0_net489
*252 clknet_0_net492
*253 clknet_0_net495
*254 clknet_0_net499
*255 clknet_0_net502
*256 clknet_0_net509
*257 clknet_0_net521
*258 clknet_0_net523
*259 clknet_0_net527
*260 clknet_0_net528
*261 clknet_0_net643
*262 clknet_0_net644
*263 clknet_0_net656
*264 clknet_0_net657
*265 clknet_0_net658
*266 clknet_0_net673
*267 clknet_0_net674
*268 clknet_0_net675
*269 clknet_0_net693
*270 clknet_0_net694
*271 clknet_0_net695
*272 clknet_0_net713
*273 clknet_0_net714
*274 clknet_0_net715
*275 clknet_0_net732
*276 clknet_0_net733
*277 clknet_0_net734
*278 clknet_0_net868
*279 clknet_0_net877
*280 clknet_0_net882
*281 clknet_0_net887
*282 clknet_0_net907
*283 clknet_0_net912
*284 clknet_0_net913
*285 clknet_0_net921
*286 clknet_1_0__leaf_net105
*287 clknet_1_0__leaf_net107
*288 clknet_1_0__leaf_net109
*289 clknet_1_0__leaf_net203
*290 clknet_1_0__leaf_net205
*291 clknet_1_0__leaf_net216
*292 clknet_1_0__leaf_net246
*293 clknet_1_0__leaf_net250
*294 clknet_1_0__leaf_net302
*295 clknet_1_0__leaf_net310
*296 clknet_1_0__leaf_net316
*297 clknet_1_0__leaf_net318
*298 clknet_1_0__leaf_net319
*299 clknet_1_0__leaf_net341
*300 clknet_1_0__leaf_net342
*301 clknet_1_0__leaf_net343
*302 clknet_1_0__leaf_net347
*303 clknet_1_0__leaf_net348
*304 clknet_1_0__leaf_net349
*305 clknet_1_0__leaf_net352
*306 clknet_1_0__leaf_net353
*307 clknet_1_0__leaf_net357
*308 clknet_1_0__leaf_net358
*309 clknet_1_0__leaf_net366
*310 clknet_1_0__leaf_net367
*311 clknet_1_0__leaf_net370
*312 clknet_1_0__leaf_net372
*313 clknet_1_0__leaf_net375
*314 clknet_1_0__leaf_net377
*315 clknet_1_0__leaf_net380
*316 clknet_1_0__leaf_net403
*317 clknet_1_0__leaf_net407
*318 clknet_1_0__leaf_net429
*319 clknet_1_0__leaf_net443
*320 clknet_1_0__leaf_net444
*321 clknet_1_0__leaf_net446
*322 clknet_1_0__leaf_net447
*323 clknet_1_0__leaf_net451
*324 clknet_1_0__leaf_net455
*325 clknet_1_0__leaf_net456
*326 clknet_1_0__leaf_net457
*327 clknet_1_0__leaf_net458
*328 clknet_1_0__leaf_net463
*329 clknet_1_0__leaf_net469
*330 clknet_1_0__leaf_net481
*331 clknet_1_0__leaf_net489
*332 clknet_1_0__leaf_net492
*333 clknet_1_0__leaf_net495
*334 clknet_1_0__leaf_net499
*335 clknet_1_0__leaf_net502
*336 clknet_1_0__leaf_net509
*337 clknet_1_0__leaf_net521
*338 clknet_1_0__leaf_net523
*339 clknet_1_0__leaf_net527
*340 clknet_1_0__leaf_net528
*341 clknet_1_0__leaf_net643
*342 clknet_1_0__leaf_net644
*343 clknet_1_0__leaf_net656
*344 clknet_1_0__leaf_net657
*345 clknet_1_0__leaf_net658
*346 clknet_1_0__leaf_net673
*347 clknet_1_0__leaf_net674
*348 clknet_1_0__leaf_net675
*349 clknet_1_0__leaf_net693
*350 clknet_1_0__leaf_net694
*351 clknet_1_0__leaf_net695
*352 clknet_1_0__leaf_net713
*353 clknet_1_0__leaf_net714
*354 clknet_1_0__leaf_net715
*355 clknet_1_0__leaf_net732
*356 clknet_1_0__leaf_net733
*357 clknet_1_0__leaf_net734
*358 clknet_1_0__leaf_net868
*359 clknet_1_0__leaf_net877
*360 clknet_1_0__leaf_net882
*361 clknet_1_0__leaf_net887
*362 clknet_1_0__leaf_net907
*363 clknet_1_0__leaf_net912
*364 clknet_1_0__leaf_net913
*365 clknet_1_0__leaf_net921
*366 clknet_1_1__leaf_net105
*367 clknet_1_1__leaf_net107
*368 clknet_1_1__leaf_net109
*369 clknet_1_1__leaf_net203
*370 clknet_1_1__leaf_net205
*371 clknet_1_1__leaf_net216
*372 clknet_1_1__leaf_net246
*373 clknet_1_1__leaf_net250
*374 clknet_1_1__leaf_net302
*375 clknet_1_1__leaf_net310
*376 clknet_1_1__leaf_net316
*377 clknet_1_1__leaf_net318
*378 clknet_1_1__leaf_net319
*379 clknet_1_1__leaf_net341
*380 clknet_1_1__leaf_net342
*381 clknet_1_1__leaf_net343
*382 clknet_1_1__leaf_net347
*383 clknet_1_1__leaf_net348
*384 clknet_1_1__leaf_net349
*385 clknet_1_1__leaf_net352
*386 clknet_1_1__leaf_net353
*387 clknet_1_1__leaf_net357
*388 clknet_1_1__leaf_net358
*389 clknet_1_1__leaf_net366
*390 clknet_1_1__leaf_net367
*391 clknet_1_1__leaf_net370
*392 clknet_1_1__leaf_net372
*393 clknet_1_1__leaf_net375
*394 clknet_1_1__leaf_net377
*395 clknet_1_1__leaf_net380
*396 clknet_1_1__leaf_net403
*397 clknet_1_1__leaf_net407
*398 clknet_1_1__leaf_net429
*399 clknet_1_1__leaf_net443
*400 clknet_1_1__leaf_net444
*401 clknet_1_1__leaf_net446
*402 clknet_1_1__leaf_net447
*403 clknet_1_1__leaf_net451
*404 clknet_1_1__leaf_net455
*405 clknet_1_1__leaf_net456
*406 clknet_1_1__leaf_net457
*407 clknet_1_1__leaf_net458
*408 clknet_1_1__leaf_net463
*409 clknet_1_1__leaf_net469
*410 clknet_1_1__leaf_net481
*411 clknet_1_1__leaf_net489
*412 clknet_1_1__leaf_net492
*413 clknet_1_1__leaf_net495
*414 clknet_1_1__leaf_net499
*415 clknet_1_1__leaf_net502
*416 clknet_1_1__leaf_net509
*417 clknet_1_1__leaf_net521
*418 clknet_1_1__leaf_net523
*419 clknet_1_1__leaf_net527
*420 clknet_1_1__leaf_net528
*421 clknet_1_1__leaf_net643
*422 clknet_1_1__leaf_net644
*423 clknet_1_1__leaf_net656
*424 clknet_1_1__leaf_net657
*425 clknet_1_1__leaf_net658
*426 clknet_1_1__leaf_net673
*427 clknet_1_1__leaf_net674
*428 clknet_1_1__leaf_net675
*429 clknet_1_1__leaf_net693
*430 clknet_1_1__leaf_net694
*431 clknet_1_1__leaf_net695
*432 clknet_1_1__leaf_net713
*433 clknet_1_1__leaf_net714
*434 clknet_1_1__leaf_net715
*435 clknet_1_1__leaf_net732
*436 clknet_1_1__leaf_net733
*437 clknet_1_1__leaf_net734
*438 clknet_1_1__leaf_net868
*439 clknet_1_1__leaf_net877
*440 clknet_1_1__leaf_net882
*441 clknet_1_1__leaf_net887
*442 clknet_1_1__leaf_net907
*443 clknet_1_1__leaf_net912
*444 clknet_1_1__leaf_net913
*445 clknet_1_1__leaf_net921
*446 clknet_4_0_0_clk
*447 clknet_4_10_0_clk
*448 clknet_4_11_0_clk
*449 clknet_4_12_0_clk
*450 clknet_4_13_0_clk
*451 clknet_4_14_0_clk
*452 clknet_4_15_0_clk
*453 clknet_4_1_0_clk
*454 clknet_4_2_0_clk
*455 clknet_4_3_0_clk
*456 clknet_4_4_0_clk
*457 clknet_4_5_0_clk
*458 clknet_4_6_0_clk
*459 clknet_4_7_0_clk
*460 clknet_4_8_0_clk
*461 clknet_4_9_0_clk
*462 net0
*463 net1
*464 net10
*465 net100
*466 net1000
*467 net1001
*468 net1002
*469 net1003
*470 net1004
*471 net1005
*472 net1006
*473 net1007
*474 net1008
*475 net1009
*476 net101
*477 net1010
*478 net1011
*479 net1012
*480 net1013
*481 net1014
*482 net1015
*483 net1016
*484 net1017
*485 net1018
*486 net1019
*487 net102
*488 net1020
*489 net1021
*490 net1022
*491 net1023
*492 net1024
*493 net1025
*494 net1026
*495 net1027
*496 net1028
*497 net1029
*498 net103
*499 net1030
*500 net1031
*501 net1032
*502 net1033
*503 net1034
*504 net1035
*505 net1036
*506 net1037
*507 net1038
*508 net1039
*509 net104
*510 net1040
*511 net1041
*512 net1042
*513 net1043
*514 net1044
*515 net1045
*516 net1046
*517 net1047
*518 net1048
*519 net1049
*520 net105
*521 net1050
*522 net1051
*523 net1052
*524 net1053
*525 net1054
*526 net1055
*527 net1056
*528 net1057
*529 net1058
*530 net1059
*531 net106
*532 net1060
*533 net1061
*534 net1062
*535 net1063
*536 net1064
*537 net1065
*538 net1066
*539 net1067
*540 net1068
*541 net1069
*542 net107
*543 net1070
*544 net1071
*545 net1072
*546 net1073
*547 net1074
*548 net1075
*549 net1076
*550 net1077
*551 net1078
*552 net1079
*553 net108
*554 net1080
*555 net1081
*556 net1082
*557 net1083
*558 net1084
*559 net1085
*560 net1086
*561 net1087
*562 net1088
*563 net1089
*564 net109
*565 net1090
*566 net1091
*567 net1092
*568 net1093
*569 net1094
*570 net1095
*571 net1096
*572 net1097
*573 net1098
*574 net1099
*575 net11
*576 net110
*577 net1100
*578 net1101
*579 net1102
*580 net1103
*581 net1104
*582 net1105
*583 net1106
*584 net1107
*585 net1108
*586 net1109
*587 net111
*588 net1110
*589 net1111
*590 net1112
*591 net1113
*592 net1114
*593 net1115
*594 net1116
*595 net1117
*596 net1118
*597 net1119
*598 net112
*599 net1120
*600 net1121
*601 net1122
*602 net1123
*603 net1124
*604 net1125
*605 net1126
*606 net1127
*607 net1128
*608 net1129
*609 net113
*610 net1130
*611 net1131
*612 net1132
*613 net1133
*614 net1134
*615 net1135
*616 net1136
*617 net1137
*618 net1138
*619 net1139
*620 net114
*621 net1140
*622 net1141
*623 net1142
*624 net1143
*625 net1144
*626 net1145
*627 net1146
*628 net1147
*629 net1148
*630 net1149
*631 net115
*632 net1150
*633 net1151
*634 net1152
*635 net1153
*636 net1154
*637 net1155
*638 net1156
*639 net1157
*640 net1158
*641 net1159
*642 net116
*643 net1160
*644 net1161
*645 net1162
*646 net117
*647 net118
*648 net119
*649 net12
*650 net120
*651 net121
*652 net122
*653 net123
*654 net124
*655 net125
*656 net126
*657 net127
*658 net128
*659 net129
*660 net13
*661 net130
*662 net131
*663 net132
*664 net133
*665 net134
*666 net135
*667 net136
*668 net137
*669 net138
*670 net139
*671 net14
*672 net140
*673 net141
*674 net142
*675 net143
*676 net144
*677 net145
*678 net146
*679 net147
*680 net148
*681 net149
*682 net15
*683 net150
*684 net151
*685 net152
*686 net153
*687 net154
*688 net155
*689 net156
*690 net157
*691 net158
*692 net159
*693 net16
*694 net160
*695 net161
*696 net162
*697 net163
*698 net164
*699 net165
*700 net166
*701 net167
*702 net168
*703 net169
*704 net17
*705 net170
*706 net171
*707 net172
*708 net173
*709 net174
*710 net175
*711 net176
*712 net177
*713 net178
*714 net179
*715 net18
*716 net180
*717 net181
*718 net182
*719 net183
*720 net184
*721 net185
*722 net186
*723 net187
*724 net188
*725 net189
*726 net19
*727 net190
*728 net191
*729 net192
*730 net193
*731 net194
*732 net195
*733 net196
*734 net197
*735 net198
*736 net199
*737 net2
*738 net20
*739 net200
*740 net201
*741 net202
*742 net203
*743 net204
*744 net205
*745 net206
*746 net207
*747 net208
*748 net209
*749 net21
*750 net210
*751 net211
*752 net212
*753 net213
*754 net214
*755 net215
*756 net216
*757 net217
*758 net218
*759 net219
*760 net22
*761 net220
*762 net221
*763 net222
*764 net223
*765 net224
*766 net225
*767 net226
*768 net227
*769 net228
*770 net229
*771 net23
*772 net230
*773 net231
*774 net232
*775 net233
*776 net234
*777 net235
*778 net236
*779 net237
*780 net238
*781 net239
*782 net24
*783 net240
*784 net241
*785 net242
*786 net243
*787 net244
*788 net245
*789 net246
*790 net247
*791 net248
*792 net249
*793 net25
*794 net250
*795 net251
*796 net252
*797 net253
*798 net254
*799 net255
*800 net256
*801 net257
*802 net258
*803 net259
*804 net26
*805 net260
*806 net261
*807 net262
*808 net263
*809 net264
*810 net265
*811 net266
*812 net267
*813 net268
*814 net269
*815 net27
*816 net270
*817 net271
*818 net272
*819 net273
*820 net274
*821 net275
*822 net276
*823 net277
*824 net278
*825 net279
*826 net28
*827 net280
*828 net281
*829 net282
*830 net283
*831 net284
*832 net285
*833 net286
*834 net287
*835 net288
*836 net289
*837 net29
*838 net290
*839 net291
*840 net292
*841 net293
*842 net294
*843 net295
*844 net296
*845 net297
*846 net298
*847 net299
*848 net3
*849 net30
*850 net300
*851 net301
*852 net302
*853 net303
*854 net304
*855 net305
*856 net306
*857 net307
*858 net308
*859 net309
*860 net31
*861 net310
*862 net311
*863 net312
*864 net313
*865 net314
*866 net315
*867 net316
*868 net317
*869 net318
*870 net319
*871 net32
*872 net320
*873 net321
*874 net322
*875 net323
*876 net324
*877 net325
*878 net326
*879 net327
*880 net328
*881 net329
*882 net33
*883 net330
*884 net331
*885 net332
*886 net333
*887 net334
*888 net335
*889 net336
*890 net337
*891 net338
*892 net339
*893 net34
*894 net340
*895 net341
*896 net342
*897 net343
*898 net344
*899 net345
*900 net346
*901 net347
*902 net348
*903 net349
*904 net35
*905 net350
*906 net351
*907 net352
*908 net353
*909 net354
*910 net355
*911 net356
*912 net357
*913 net358
*914 net359
*915 net36
*916 net360
*917 net361
*918 net362
*919 net363
*920 net364
*921 net365
*922 net366
*923 net367
*924 net368
*925 net369
*926 net37
*927 net370
*928 net371
*929 net372
*930 net373
*931 net374
*932 net375
*933 net376
*934 net377
*935 net378
*936 net379
*937 net38
*938 net380
*939 net381
*940 net382
*941 net383
*942 net384
*943 net385
*944 net386
*945 net387
*946 net388
*947 net389
*948 net39
*949 net390
*950 net391
*951 net392
*952 net393
*953 net394
*954 net395
*955 net396
*956 net397
*957 net398
*958 net399
*959 net4
*960 net40
*961 net400
*962 net401
*963 net402
*964 net403
*965 net404
*966 net405
*967 net406
*968 net407
*969 net408
*970 net409
*971 net41
*972 net410
*973 net411
*974 net412
*975 net413
*976 net414
*977 net415
*978 net416
*979 net417
*980 net418
*981 net419
*982 net42
*983 net420
*984 net421
*985 net422
*986 net423
*987 net424
*988 net425
*989 net426
*990 net427
*991 net428
*992 net429
*993 net43
*994 net430
*995 net431
*996 net432
*997 net433
*998 net434
*999 net435
*1000 net436
*1001 net437
*1002 net438
*1003 net439
*1004 net44
*1005 net440
*1006 net441
*1007 net442
*1008 net443
*1009 net444
*1010 net445
*1011 net446
*1012 net447
*1013 net448
*1014 net449
*1015 net45
*1016 net450
*1017 net451
*1018 net452
*1019 net453
*1020 net454
*1021 net455
*1022 net456
*1023 net457
*1024 net458
*1025 net459
*1026 net46
*1027 net460
*1028 net461
*1029 net462
*1030 net463
*1031 net464
*1032 net465
*1033 net466
*1034 net467
*1035 net468
*1036 net469
*1037 net47
*1038 net470
*1039 net471
*1040 net472
*1041 net473
*1042 net474
*1043 net475
*1044 net476
*1045 net477
*1046 net478
*1047 net479
*1048 net48
*1049 net480
*1050 net481
*1051 net482
*1052 net483
*1053 net484
*1054 net485
*1055 net486
*1056 net487
*1057 net488
*1058 net489
*1059 net49
*1060 net490
*1061 net491
*1062 net492
*1063 net493
*1064 net494
*1065 net495
*1066 net496
*1067 net497
*1068 net498
*1069 net499
*1070 net5
*1071 net50
*1072 net500
*1073 net501
*1074 net502
*1075 net503
*1076 net504
*1077 net505
*1078 net506
*1079 net507
*1080 net508
*1081 net509
*1082 net51
*1083 net510
*1084 net511
*1085 net512
*1086 net513
*1087 net514
*1088 net515
*1089 net516
*1090 net517
*1091 net518
*1092 net519
*1093 net52
*1094 net520
*1095 net521
*1096 net522
*1097 net523
*1098 net524
*1099 net525
*1100 net526
*1101 net527
*1102 net528
*1103 net529
*1104 net53
*1105 net530
*1106 net531
*1107 net532
*1108 net533
*1109 net534
*1110 net535
*1111 net536
*1112 net537
*1113 net538
*1114 net539
*1115 net54
*1116 net540
*1117 net541
*1118 net542
*1119 net543
*1120 net544
*1121 net545
*1122 net546
*1123 net547
*1124 net548
*1125 net549
*1126 net55
*1127 net550
*1128 net551
*1129 net552
*1130 net553
*1131 net554
*1132 net555
*1133 net556
*1134 net557
*1135 net558
*1136 net559
*1137 net56
*1138 net560
*1139 net561
*1140 net562
*1141 net563
*1142 net564
*1143 net565
*1144 net566
*1145 net567
*1146 net568
*1147 net569
*1148 net57
*1149 net570
*1150 net571
*1151 net572
*1152 net573
*1153 net574
*1154 net575
*1155 net576
*1156 net577
*1157 net578
*1158 net579
*1159 net58
*1160 net580
*1161 net581
*1162 net582
*1163 net583
*1164 net584
*1165 net585
*1166 net586
*1167 net587
*1168 net588
*1169 net589
*1170 net59
*1171 net590
*1172 net591
*1173 net592
*1174 net593
*1175 net594
*1176 net595
*1177 net596
*1178 net597
*1179 net598
*1180 net599
*1181 net6
*1182 net60
*1183 net600
*1184 net601
*1185 net602
*1186 net603
*1187 net604
*1188 net605
*1189 net606
*1190 net607
*1191 net608
*1192 net609
*1193 net61
*1194 net610
*1195 net611
*1196 net612
*1197 net613
*1198 net614
*1199 net615
*1200 net616
*1201 net617
*1202 net618
*1203 net619
*1204 net62
*1205 net620
*1206 net621
*1207 net622
*1208 net623
*1209 net624
*1210 net625
*1211 net626
*1212 net627
*1213 net628
*1214 net629
*1215 net63
*1216 net630
*1217 net631
*1218 net632
*1219 net633
*1220 net634
*1221 net635
*1222 net636
*1223 net637
*1224 net638
*1225 net639
*1226 net64
*1227 net640
*1228 net641
*1229 net642
*1230 net643
*1231 net644
*1232 net645
*1233 net646
*1234 net647
*1235 net648
*1236 net649
*1237 net65
*1238 net650
*1239 net651
*1240 net652
*1241 net653
*1242 net654
*1243 net655
*1244 net656
*1245 net657
*1246 net658
*1247 net659
*1248 net66
*1249 net660
*1250 net661
*1251 net662
*1252 net663
*1253 net664
*1254 net665
*1255 net666
*1256 net667
*1257 net668
*1258 net669
*1259 net67
*1260 net670
*1261 net671
*1262 net672
*1263 net673
*1264 net674
*1265 net675
*1266 net676
*1267 net677
*1268 net678
*1269 net679
*1270 net68
*1271 net680
*1272 net681
*1273 net682
*1274 net683
*1275 net684
*1276 net685
*1277 net686
*1278 net687
*1279 net688
*1280 net689
*1281 net69
*1282 net690
*1283 net691
*1284 net692
*1285 net693
*1286 net694
*1287 net695
*1288 net696
*1289 net697
*1290 net698
*1291 net699
*1292 net7
*1293 net70
*1294 net700
*1295 net701
*1296 net702
*1297 net703
*1298 net704
*1299 net705
*1300 net706
*1301 net707
*1302 net708
*1303 net709
*1304 net71
*1305 net710
*1306 net711
*1307 net712
*1308 net713
*1309 net714
*1310 net715
*1311 net716
*1312 net717
*1313 net718
*1314 net719
*1315 net72
*1316 net720
*1317 net721
*1318 net722
*1319 net723
*1320 net724
*1321 net725
*1322 net726
*1323 net727
*1324 net728
*1325 net729
*1326 net73
*1327 net730
*1328 net731
*1329 net732
*1330 net733
*1331 net734
*1332 net735
*1333 net736
*1334 net737
*1335 net738
*1336 net739
*1337 net74
*1338 net740
*1339 net741
*1340 net742
*1341 net743
*1342 net744
*1343 net745
*1344 net746
*1345 net747
*1346 net748
*1347 net749
*1348 net75
*1349 net750
*1350 net751
*1351 net752
*1352 net753
*1353 net754
*1354 net755
*1355 net756
*1356 net757
*1357 net758
*1358 net759
*1359 net76
*1360 net760
*1361 net761
*1362 net762
*1363 net763
*1364 net764
*1365 net765
*1366 net766
*1367 net767
*1368 net768
*1369 net769
*1370 net77
*1371 net770
*1372 net771
*1373 net772
*1374 net773
*1375 net774
*1376 net775
*1377 net776
*1378 net777
*1379 net778
*1380 net779
*1381 net78
*1382 net780
*1383 net781
*1384 net782
*1385 net783
*1386 net784
*1387 net785
*1388 net786
*1389 net787
*1390 net788
*1391 net789
*1392 net79
*1393 net790
*1394 net791
*1395 net792
*1396 net793
*1397 net794
*1398 net795
*1399 net796
*1400 net797
*1401 net798
*1402 net799
*1403 net8
*1404 net80
*1405 net800
*1406 net801
*1407 net802
*1408 net803
*1409 net804
*1410 net805
*1411 net806
*1412 net807
*1413 net808
*1414 net809
*1415 net81
*1416 net810
*1417 net811
*1418 net812
*1419 net813
*1420 net814
*1421 net815
*1422 net816
*1423 net817
*1424 net818
*1425 net819
*1426 net82
*1427 net820
*1428 net821
*1429 net822
*1430 net823
*1431 net824
*1432 net825
*1433 net826
*1434 net827
*1435 net828
*1436 net829
*1437 net83
*1438 net830
*1439 net831
*1440 net832
*1441 net833
*1442 net834
*1443 net835
*1444 net836
*1445 net837
*1446 net838
*1447 net839
*1448 net84
*1449 net840
*1450 net841
*1451 net842
*1452 net843
*1453 net844
*1454 net845
*1455 net846
*1456 net847
*1457 net848
*1458 net849
*1459 net85
*1460 net850
*1461 net851
*1462 net852
*1463 net853
*1464 net854
*1465 net855
*1466 net856
*1467 net857
*1468 net858
*1469 net859
*1470 net86
*1471 net860
*1472 net861
*1473 net862
*1474 net863
*1475 net864
*1476 net865
*1477 net866
*1478 net867
*1479 net868
*1480 net869
*1481 net87
*1482 net870
*1483 net871
*1484 net872
*1485 net873
*1486 net874
*1487 net875
*1488 net876
*1489 net877
*1490 net878
*1491 net879
*1492 net88
*1493 net880
*1494 net881
*1495 net882
*1496 net883
*1497 net884
*1498 net885
*1499 net886
*1500 net887
*1501 net888
*1502 net889
*1503 net89
*1504 net890
*1505 net891
*1506 net892
*1507 net893
*1508 net894
*1509 net895
*1510 net896
*1511 net897
*1512 net898
*1513 net899
*1514 net9
*1515 net90
*1516 net900
*1517 net901
*1518 net902
*1519 net903
*1520 net904
*1521 net905
*1522 net906
*1523 net907
*1524 net908
*1525 net909
*1526 net91
*1527 net910
*1528 net911
*1529 net912
*1530 net913
*1531 net914
*1532 net915
*1533 net916
*1534 net917
*1535 net918
*1536 net919
*1537 net92
*1538 net920
*1539 net921
*1540 net922
*1541 net923
*1542 net924
*1543 net925
*1544 net926
*1545 net927
*1546 net928
*1547 net929
*1548 net93
*1549 net930
*1550 net931
*1551 net932
*1552 net933
*1553 net934
*1554 net935
*1555 net936
*1556 net937
*1557 net938
*1558 net939
*1559 net94
*1560 net940
*1561 net941
*1562 net942
*1563 net943
*1564 net944
*1565 net945
*1566 net946
*1567 net947
*1568 net948
*1569 net949
*1570 net95
*1571 net950
*1572 net951
*1573 net952
*1574 net953
*1575 net954
*1576 net955
*1577 net956
*1578 net957
*1579 net958
*1580 net959
*1581 net96
*1582 net960
*1583 net961
*1584 net962
*1585 net963
*1586 net964
*1587 net965
*1588 net966
*1589 net967
*1590 net968
*1591 net969
*1592 net97
*1593 net970
*1594 net971
*1595 net972
*1596 net973
*1597 net974
*1598 net975
*1599 net976
*1600 net977
*1601 net978
*1602 net979
*1603 net98
*1604 net980
*1605 net981
*1606 net982
*1607 net983
*1608 net984
*1609 net985
*1610 net986
*1611 net987
*1612 net988
*1613 net989
*1614 net99
*1615 net990
*1616 net991
*1617 net992
*1618 net993
*1619 net994
*1620 net995
*1621 net996
*1622 net997
*1623 net998
*1624 net999
*1625 ANTENNA_c100_A1
*1626 ANTENNA_c100_A3
*1627 ANTENNA_c100_S1
*1628 ANTENNA_c101_A2
*1629 ANTENNA_c101_S0
*1630 ANTENNA_c101_S1
*1631 ANTENNA_c102_A0
*1632 ANTENNA_c102_A1
*1633 ANTENNA_c102_A2
*1634 ANTENNA_c102_S0
*1635 ANTENNA_c102_X
*1636 ANTENNA_c103_A0
*1637 ANTENNA_c103_A2
*1638 ANTENNA_c103_S0
*1639 ANTENNA_c103_X
*1640 ANTENNA_c104_S1
*1641 ANTENNA_c105_A1
*1642 ANTENNA_c105_A3
*1643 ANTENNA_c105_S0
*1644 ANTENNA_c105_S1
*1645 ANTENNA_c105_X
*1646 ANTENNA_c106_A1
*1647 ANTENNA_c106_A2
*1648 ANTENNA_c106_S0
*1649 ANTENNA_c106_S1
*1650 ANTENNA_c107_A0
*1651 ANTENNA_c107_S0
*1652 ANTENNA_c107_X
*1653 ANTENNA_c108_A1
*1654 ANTENNA_c108_A2
*1655 ANTENNA_c108_A3
*1656 ANTENNA_c108_S0
*1657 ANTENNA_c108_S1
*1658 ANTENNA_c109_A3
*1659 ANTENNA_c109_S1
*1660 ANTENNA_c109_X
*1661 ANTENNA_c110_A2
*1662 ANTENNA_c110_A3
*1663 ANTENNA_c111_A1
*1664 ANTENNA_c111_A2
*1665 ANTENNA_c111_A3
*1666 ANTENNA_c111_B1
*1667 ANTENNA_c113_A2
*1668 ANTENNA_c113_A3
*1669 ANTENNA_c113_B1
*1670 ANTENNA_c114_A4
*1671 ANTENNA_c114_B1
*1672 ANTENNA_c115_A1
*1673 ANTENNA_c115_A3
*1674 ANTENNA_c115_S1
*1675 ANTENNA_c116_A3
*1676 ANTENNA_c116_B1
*1677 ANTENNA_c117_A3
*1678 ANTENNA_c117_S1
*1679 ANTENNA_c118_A0
*1680 ANTENNA_c119_A3
*1681 ANTENNA_c119_A4
*1682 ANTENNA_c119_B1
*1683 ANTENNA_c120_A3
*1684 ANTENNA_c120_A4
*1685 ANTENNA_c120_B1
*1686 ANTENNA_c121_A1
*1687 ANTENNA_c121_A3
*1688 ANTENNA_c122_A1
*1689 ANTENNA_c122_A2
*1690 ANTENNA_c124_A0
*1691 ANTENNA_c124_A3
*1692 ANTENNA_c124_S0
*1693 ANTENNA_c125_S0
*1694 ANTENNA_c126_A2
*1695 ANTENNA_c126_S0
*1696 ANTENNA_c127_A3
*1697 ANTENNA_c129_B1
*1698 ANTENNA_c131_A3
*1699 ANTENNA_c132_A1
*1700 ANTENNA_c132_A2
*1701 ANTENNA_c132_A3
*1702 ANTENNA_c132_A4
*1703 ANTENNA_c132_X
*1704 ANTENNA_c133_A1
*1705 ANTENNA_c133_A2
*1706 ANTENNA_c133_A4
*1707 ANTENNA_c133_B1
*1708 ANTENNA_c133_X
*1709 ANTENNA_c134_A2
*1710 ANTENNA_c134_A3
*1711 ANTENNA_c134_X
*1712 ANTENNA_c135_A1
*1713 ANTENNA_c135_A2
*1714 ANTENNA_c135_A3
*1715 ANTENNA_c135_A4
*1716 ANTENNA_c135_B1
*1717 ANTENNA_c135_X
*1718 ANTENNA_c136_A1
*1719 ANTENNA_c136_A2
*1720 ANTENNA_c136_A3
*1721 ANTENNA_c136_B1
*1722 ANTENNA_c136_X
*1723 ANTENNA_c137_A1
*1724 ANTENNA_c137_A2
*1725 ANTENNA_c137_A3
*1726 ANTENNA_c137_X
*1727 ANTENNA_c138_A1
*1728 ANTENNA_c138_A3
*1729 ANTENNA_c138_A4
*1730 ANTENNA_c138_B1
*1731 ANTENNA_c139_A1
*1732 ANTENNA_c139_A2
*1733 ANTENNA_c139_A3
*1734 ANTENNA_c139_A4
*1735 ANTENNA_c139_B1
*1736 ANTENNA_c139_X
*1737 ANTENNA_c140_A1
*1738 ANTENNA_c140_A3
*1739 ANTENNA_c140_A4
*1740 ANTENNA_c140_B1
*1741 ANTENNA_c140_X
*1742 ANTENNA_c141_A1
*1743 ANTENNA_c141_A2
*1744 ANTENNA_c141_A3
*1745 ANTENNA_c142_A1
*1746 ANTENNA_c142_A2
*1747 ANTENNA_c142_A3
*1748 ANTENNA_c142_S0
*1749 ANTENNA_c142_X
*1750 ANTENNA_c143_A2
*1751 ANTENNA_c143_A3
*1752 ANTENNA_c143_A4
*1753 ANTENNA_c144_A2
*1754 ANTENNA_c144_A3
*1755 ANTENNA_c145_A0
*1756 ANTENNA_c145_A1
*1757 ANTENNA_c145_A3
*1758 ANTENNA_c145_S0
*1759 ANTENNA_c146_A2
*1760 ANTENNA_c146_A3
*1761 ANTENNA_c146_X
*1762 ANTENNA_c147_A0
*1763 ANTENNA_c147_A3
*1764 ANTENNA_c147_X
*1765 ANTENNA_c148_A1
*1766 ANTENNA_c149_A1
*1767 ANTENNA_c149_A4
*1768 ANTENNA_c149_X
*1769 ANTENNA_c150_A0
*1770 ANTENNA_c150_A1
*1771 ANTENNA_c150_A2
*1772 ANTENNA_c150_A3
*1773 ANTENNA_c150_S1
*1774 ANTENNA_c150_X
*1775 ANTENNA_c151_A1
*1776 ANTENNA_c151_A2
*1777 ANTENNA_c151_A4
*1778 ANTENNA_c151_X
*1779 ANTENNA_c152_A0
*1780 ANTENNA_c152_A1
*1781 ANTENNA_c152_A2
*1782 ANTENNA_c152_S0
*1783 ANTENNA_c152_S1
*1784 ANTENNA_c153_A0
*1785 ANTENNA_c153_A2
*1786 ANTENNA_c153_S0
*1787 ANTENNA_c153_S1
*1788 ANTENNA_c154_A1
*1789 ANTENNA_c154_A2
*1790 ANTENNA_c154_A3
*1791 ANTENNA_c154_A4
*1792 ANTENNA_c155_A3
*1793 ANTENNA_c155_S0
*1794 ANTENNA_c155_S1
*1795 ANTENNA_c155_X
*1796 ANTENNA_c156_A1
*1797 ANTENNA_c156_A2
*1798 ANTENNA_c156_A3
*1799 ANTENNA_c156_A4
*1800 ANTENNA_c156_B1
*1801 ANTENNA_c156_X
*1802 ANTENNA_c157_A0
*1803 ANTENNA_c157_A1
*1804 ANTENNA_c157_A2
*1805 ANTENNA_c157_A3
*1806 ANTENNA_c157_S0
*1807 ANTENNA_c157_S1
*1808 ANTENNA_c157_X
*1809 ANTENNA_c158_A4
*1810 ANTENNA_c158_B1
*1811 ANTENNA_c159_A2
*1812 ANTENNA_c159_A3
*1813 ANTENNA_c159_A4
*1814 ANTENNA_c159_B1
*1815 ANTENNA_c159_X
*1816 ANTENNA_c160_A1
*1817 ANTENNA_c160_A2
*1818 ANTENNA_c160_A3
*1819 ANTENNA_c160_A4
*1820 ANTENNA_c161_A2
*1821 ANTENNA_c161_A4
*1822 ANTENNA_c161_X
*1823 ANTENNA_c162_A1
*1824 ANTENNA_c162_A3
*1825 ANTENNA_c162_A4
*1826 ANTENNA_c162_X
*1827 ANTENNA_c163_A0
*1828 ANTENNA_c163_A2
*1829 ANTENNA_c163_A3
*1830 ANTENNA_c163_S0
*1831 ANTENNA_c164_A1
*1832 ANTENNA_c164_A2
*1833 ANTENNA_c164_A3
*1834 ANTENNA_c164_S0
*1835 ANTENNA_c164_S1
*1836 ANTENNA_c164_X
*1837 ANTENNA_c165_A0
*1838 ANTENNA_c165_A1
*1839 ANTENNA_c165_A3
*1840 ANTENNA_c165_S0
*1841 ANTENNA_c165_S1
*1842 ANTENNA_c165_X
*1843 ANTENNA_c166_A1
*1844 ANTENNA_c166_A2
*1845 ANTENNA_c166_A3
*1846 ANTENNA_c166_B1
*1847 ANTENNA_c166_X
*1848 ANTENNA_c167_A1
*1849 ANTENNA_c167_A2
*1850 ANTENNA_c167_A4
*1851 ANTENNA_c167_B1
*1852 ANTENNA_c168_A0
*1853 ANTENNA_c168_A1
*1854 ANTENNA_c168_A3
*1855 ANTENNA_c168_S0
*1856 ANTENNA_c168_X
*1857 ANTENNA_c169_A0
*1858 ANTENNA_c169_A1
*1859 ANTENNA_c169_A2
*1860 ANTENNA_c169_S0
*1861 ANTENNA_c169_S1
*1862 ANTENNA_c169_X
*1863 ANTENNA_c170_A1
*1864 ANTENNA_c170_A3
*1865 ANTENNA_c170_S0
*1866 ANTENNA_c170_S1
*1867 ANTENNA_c171_A0
*1868 ANTENNA_c171_A1
*1869 ANTENNA_c171_S0
*1870 ANTENNA_c172_A0
*1871 ANTENNA_c172_A2
*1872 ANTENNA_c172_A3
*1873 ANTENNA_c172_S0
*1874 ANTENNA_c173_A0
*1875 ANTENNA_c173_A1
*1876 ANTENNA_c173_A3
*1877 ANTENNA_c174_A3
*1878 ANTENNA_c174_S1
*1879 ANTENNA_c174_X
*1880 ANTENNA_c175_A1
*1881 ANTENNA_c175_A2
*1882 ANTENNA_c175_S0
*1883 ANTENNA_c175_X
*1884 ANTENNA_c176_A2
*1885 ANTENNA_c176_A3
*1886 ANTENNA_c176_S0
*1887 ANTENNA_c176_S1
*1888 ANTENNA_c176_X
*1889 ANTENNA_c177_A0
*1890 ANTENNA_c177_A1
*1891 ANTENNA_c177_A2
*1892 ANTENNA_c177_A3
*1893 ANTENNA_c177_S0
*1894 ANTENNA_c177_S1
*1895 ANTENNA_c177_X
*1896 ANTENNA_c178_A1
*1897 ANTENNA_c178_A2
*1898 ANTENNA_c178_A3
*1899 ANTENNA_c178_S0
*1900 ANTENNA_c178_S1
*1901 ANTENNA_c179_A0
*1902 ANTENNA_c179_A1
*1903 ANTENNA_c179_A2
*1904 ANTENNA_c179_A3
*1905 ANTENNA_c179_S0
*1906 ANTENNA_c179_S1
*1907 ANTENNA_c179_X
*1908 ANTENNA_c180_A1
*1909 ANTENNA_c180_A2
*1910 ANTENNA_c180_A3
*1911 ANTENNA_c180_A4
*1912 ANTENNA_c180_B1
*1913 ANTENNA_c181_A1