*SPEF "ieee 1481-1999"
*DESIGN "netlist_0"
*DATE "20:52:59 Wednesday August 14, 2024"
*VENDOR "The OpenROAD Project"
*PROGRAM "OpenROAD"
*VERSION "d423155d69de7f683a23f6916ead418a615ad4ad"
*DESIGN_FLOW "NAME_SCOPE LOCAL" "PIN_CAP NONE"
*DIVIDER /
*DELIMITER :
*BUS_DELIMITER []
*T_UNIT 1 NS
*C_UNIT 1 PF
*R_UNIT 1 OHM
*L_UNIT 1 HENRY

*NAME_MAP
*3 clk
*4 in0
*5 in1
*6 in10
*7 in11
*8 in12
*9 in13
*10 in14
*11 in15
*12 in16
*13 in17
*14 in18
*15 in19
*16 in2
*17 in20
*18 in21
*19 in22
*20 in23
*21 in24
*22 in25
*23 in26
*24 in27
*25 in28
*26 in29
*27 in3
*28 in30
*29 in31
*30 in32
*31 in33
*32 in34
*33 in35
*34 in36
*35 in37
*36 in38
*37 in39
*38 in4
*39 in40
*40 in41
*41 in42
*42 in43
*43 in44
*44 in45
*45 in46
*46 in47
*47 in48
*48 in49
*49 in5
*50 in50
*51 in51
*52 in52
*53 in53
*54 in54
*55 in55
*56 in56
*57 in57
*58 in58
*59 in59
*60 in6
*61 in60
*62 in61
*63 in62
*64 in63
*65 in64
*66 in65
*67 in66
*68 in67
*69 in68
*70 in69
*71 in7
*72 in70
*73 in71
*74 in72
*75 in73
*76 in74
*77 in75
*78 in76
*79 in77
*80 in78
*81 in79
*82 in8
*83 in80
*84 in81
*85 in82
*86 in83
*87 in84
*88 in85
*89 in86
*90 in87
*91 in88
*92 in89
*93 in9
*94 in90
*95 in91
*96 in92
*97 in93
*98 in94
*99 in95
*100 in96
*101 in97
*102 in98
*103 in99
*104 out0
*105 out1
*106 out10
*107 out11
*108 out12
*109 out13
*110 out14
*111 out15
*112 out16
*113 out17
*114 out18
*115 out19
*116 out2
*117 out20
*118 out21
*119 out22
*120 out23
*121 out24
*122 out25
*123 out26
*124 out27
*125 out28
*126 out29
*127 out3
*128 out30
*129 out31
*130 out32
*131 out33
*132 out34
*133 out35
*134 out36
*135 out37
*136 out38
*137 out39
*138 out4
*139 out40
*140 out41
*141 out42
*142 out43
*143 out44
*144 out45
*145 out46
*146 out47
*147 out48
*148 out49
*149 out5
*150 out50
*151 out51
*152 out52
*153 out53
*154 out54
*155 out55
*156 out56
*157 out57
*158 out58
*159 out59
*160 out6
*161 out60
*162 out61
*163 out62
*164 out63
*165 out64
*166 out65
*167 out66
*168 out67
*169 out68
*170 out69
*171 out7
*172 out70
*173 out71
*174 out72
*175 out73
*176 out74
*177 out75
*178 out76
*179 out77
*180 out78
*181 out79
*182 out8
*183 out80
*184 out81
*185 out82
*186 out83
*187 out84
*188 out85
*189 out86
*190 out87
*191 out88
*192 out89
*193 out9
*194 out90
*195 out91
*196 out92
*197 out93
*198 out94
*199 out95
*200 out96
*201 out97
*202 out98
*203 out99
*204 rst
*205 clknet_0_clk
*206 clknet_0_net100
*207 clknet_0_net105
*208 clknet_0_net110
*209 clknet_0_net111
*210 clknet_0_net114
*211 clknet_0_net169
*212 clknet_0_net189
*213 clknet_0_net190
*214 clknet_0_net193
*215 clknet_0_net196
*216 clknet_0_net198
*217 clknet_0_net199
*218 clknet_0_net200
*219 clknet_0_net208
*220 clknet_0_net214
*221 clknet_0_net216
*222 clknet_0_net218
*223 clknet_0_net220
*224 clknet_0_net222
*225 clknet_0_net226
*226 clknet_0_net269
*227 clknet_0_net271
*228 clknet_0_net275
*229 clknet_0_net277
*230 clknet_0_net283
*231 clknet_0_net288
*232 clknet_0_net291
*233 clknet_0_net299
*234 clknet_0_net301
*235 clknet_0_net305
*236 clknet_0_net315
*237 clknet_0_net320
*238 clknet_0_net325
*239 clknet_0_net328
*240 clknet_0_net330
*241 clknet_0_net331
*242 clknet_0_net351
*243 clknet_0_net354
*244 clknet_0_net355
*245 clknet_0_net358
*246 clknet_0_net361
*247 clknet_0_net365
*248 clknet_0_net366
*249 clknet_0_net368
*250 clknet_0_net369
*251 clknet_0_net375
*252 clknet_0_net376
*253 clknet_0_net379
*254 clknet_0_net385
*255 clknet_0_net386
*256 clknet_0_net387
*257 clknet_0_net388
*258 clknet_0_net389
*259 clknet_0_net391
*260 clknet_0_net392
*261 clknet_0_net394
*262 clknet_0_net399
*263 clknet_0_net400
*264 clknet_0_net402
*265 clknet_0_net404
*266 clknet_0_net405
*267 clknet_0_net412
*268 clknet_0_net420
*269 clknet_0_net421
*270 clknet_0_net428
*271 clknet_0_net446
*272 clknet_0_net450
*273 clknet_0_net462
*274 clknet_0_net467
*275 clknet_0_net468
*276 clknet_0_net473
*277 clknet_0_net474
*278 clknet_0_net476
*279 clknet_0_net481
*280 clknet_0_net484
*281 clknet_0_net486
*282 clknet_0_net487
*283 clknet_0_net489
*284 clknet_0_net494
*285 clknet_0_net495
*286 clknet_0_net497
*287 clknet_0_net502
*288 clknet_0_net504
*289 clknet_0_net506
*290 clknet_0_net511
*291 clknet_0_net527
*292 clknet_0_net533
*293 clknet_0_net612
*294 clknet_0_net613
*295 clknet_0_net614
*296 clknet_0_net645
*297 clknet_0_net646
*298 clknet_0_net663
*299 clknet_0_net664
*300 clknet_0_net680
*301 clknet_0_net699
*302 clknet_0_net700
*303 clknet_0_net701
*304 clknet_0_net719
*305 clknet_0_net720
*306 clknet_0_net721
*307 clknet_0_net738
*308 clknet_0_net739
*309 clknet_0_net740
*310 clknet_0_net756
*311 clknet_0_net757
*312 clknet_0_net758
*313 clknet_0_net775
*314 clknet_0_net883
*315 clknet_0_net884
*316 clknet_0_net892
*317 clknet_0_net893
*318 clknet_0_net897
*319 clknet_0_net899
*320 clknet_0_net902
*321 clknet_0_net907
*322 clknet_0_net908
*323 clknet_0_net909
*324 clknet_0_net911
*325 clknet_0_net914
*326 clknet_0_net917
*327 clknet_0_net918
*328 clknet_0_net919
*329 clknet_0_net922
*330 clknet_0_net924
*331 clknet_0_net925
*332 clknet_0_net927
*333 clknet_0_net928
*334 clknet_0_net931
*335 clknet_0_net933
*336 clknet_0_net938
*337 clknet_0_net942
*338 clknet_0_net944
*339 clknet_0_net945
*340 clknet_0_net948
*341 clknet_0_net952
*342 clknet_0_net96
*343 clknet_0_net99
*344 clknet_1_0__leaf_net100
*345 clknet_1_0__leaf_net105
*346 clknet_1_0__leaf_net110
*347 clknet_1_0__leaf_net111
*348 clknet_1_0__leaf_net114
*349 clknet_1_0__leaf_net169
*350 clknet_1_0__leaf_net189
*351 clknet_1_0__leaf_net190
*352 clknet_1_0__leaf_net193
*353 clknet_1_0__leaf_net196
*354 clknet_1_0__leaf_net198
*355 clknet_1_0__leaf_net199
*356 clknet_1_0__leaf_net200
*357 clknet_1_0__leaf_net208
*358 clknet_1_0__leaf_net214
*359 clknet_1_0__leaf_net216
*360 clknet_1_0__leaf_net218
*361 clknet_1_0__leaf_net220
*362 clknet_1_0__leaf_net222
*363 clknet_1_0__leaf_net226
*364 clknet_1_0__leaf_net269
*365 clknet_1_0__leaf_net271
*366 clknet_1_0__leaf_net275
*367 clknet_1_0__leaf_net277
*368 clknet_1_0__leaf_net283
*369 clknet_1_0__leaf_net288
*370 clknet_1_0__leaf_net291
*371 clknet_1_0__leaf_net299
*372 clknet_1_0__leaf_net301
*373 clknet_1_0__leaf_net305
*374 clknet_1_0__leaf_net315
*375 clknet_1_0__leaf_net320
*376 clknet_1_0__leaf_net325
*377 clknet_1_0__leaf_net328
*378 clknet_1_0__leaf_net330
*379 clknet_1_0__leaf_net331
*380 clknet_1_0__leaf_net351
*381 clknet_1_0__leaf_net354
*382 clknet_1_0__leaf_net355
*383 clknet_1_0__leaf_net358
*384 clknet_1_0__leaf_net361
*385 clknet_1_0__leaf_net365
*386 clknet_1_0__leaf_net366
*387 clknet_1_0__leaf_net368
*388 clknet_1_0__leaf_net369
*389 clknet_1_0__leaf_net375
*390 clknet_1_0__leaf_net376
*391 clknet_1_0__leaf_net379
*392 clknet_1_0__leaf_net385
*393 clknet_1_0__leaf_net386
*394 clknet_1_0__leaf_net387
*395 clknet_1_0__leaf_net388
*396 clknet_1_0__leaf_net389
*397 clknet_1_0__leaf_net391
*398 clknet_1_0__leaf_net392
*399 clknet_1_0__leaf_net394
*400 clknet_1_0__leaf_net399
*401 clknet_1_0__leaf_net400
*402 clknet_1_0__leaf_net402
*403 clknet_1_0__leaf_net404
*404 clknet_1_0__leaf_net405
*405 clknet_1_0__leaf_net412
*406 clknet_1_0__leaf_net420
*407 clknet_1_0__leaf_net421
*408 clknet_1_0__leaf_net428
*409 clknet_1_0__leaf_net446
*410 clknet_1_0__leaf_net450
*411 clknet_1_0__leaf_net462
*412 clknet_1_0__leaf_net467
*413 clknet_1_0__leaf_net468
*414 clknet_1_0__leaf_net473
*415 clknet_1_0__leaf_net474
*416 clknet_1_0__leaf_net476
*417 clknet_1_0__leaf_net481
*418 clknet_1_0__leaf_net484
*419 clknet_1_0__leaf_net486
*420 clknet_1_0__leaf_net487
*421 clknet_1_0__leaf_net489
*422 clknet_1_0__leaf_net494
*423 clknet_1_0__leaf_net495
*424 clknet_1_0__leaf_net497
*425 clknet_1_0__leaf_net502
*426 clknet_1_0__leaf_net504
*427 clknet_1_0__leaf_net506
*428 clknet_1_0__leaf_net511
*429 clknet_1_0__leaf_net527
*430 clknet_1_0__leaf_net533
*431 clknet_1_0__leaf_net612
*432 clknet_1_0__leaf_net613
*433 clknet_1_0__leaf_net614
*434 clknet_1_0__leaf_net645
*435 clknet_1_0__leaf_net646
*436 clknet_1_0__leaf_net663
*437 clknet_1_0__leaf_net664
*438 clknet_1_0__leaf_net680
*439 clknet_1_0__leaf_net699
*440 clknet_1_0__leaf_net700
*441 clknet_1_0__leaf_net701
*442 clknet_1_0__leaf_net719
*443 clknet_1_0__leaf_net720
*444 clknet_1_0__leaf_net721
*445 clknet_1_0__leaf_net738
*446 clknet_1_0__leaf_net739
*447 clknet_1_0__leaf_net740
*448 clknet_1_0__leaf_net756
*449 clknet_1_0__leaf_net757
*450 clknet_1_0__leaf_net758
*451 clknet_1_0__leaf_net775
*452 clknet_1_0__leaf_net883
*453 clknet_1_0__leaf_net884
*454 clknet_1_0__leaf_net892
*455 clknet_1_0__leaf_net893
*456 clknet_1_0__leaf_net897
*457 clknet_1_0__leaf_net899
*458 clknet_1_0__leaf_net902
*459 clknet_1_0__leaf_net907
*460 clknet_1_0__leaf_net908
*461 clknet_1_0__leaf_net909
*462 clknet_1_0__leaf_net911
*463 clknet_1_0__leaf_net914
*464 clknet_1_0__leaf_net917
*465 clknet_1_0__leaf_net918
*466 clknet_1_0__leaf_net919
*467 clknet_1_0__leaf_net922
*468 clknet_1_0__leaf_net924
*469 clknet_1_0__leaf_net925
*470 clknet_1_0__leaf_net927
*471 clknet_1_0__leaf_net928
*472 clknet_1_0__leaf_net931
*473 clknet_1_0__leaf_net933
*474 clknet_1_0__leaf_net938
*475 clknet_1_0__leaf_net942
*476 clknet_1_0__leaf_net944
*477 clknet_1_0__leaf_net945
*478 clknet_1_0__leaf_net948
*479 clknet_1_0__leaf_net952
*480 clknet_1_0__leaf_net96
*481 clknet_1_0__leaf_net99
*482 clknet_1_1__leaf_net100
*483 clknet_1_1__leaf_net105
*484 clknet_1_1__leaf_net110
*485 clknet_1_1__leaf_net111
*486 clknet_1_1__leaf_net114
*487 clknet_1_1__leaf_net169
*488 clknet_1_1__leaf_net189
*489 clknet_1_1__leaf_net190
*490 clknet_1_1__leaf_net193
*491 clknet_1_1__leaf_net196
*492 clknet_1_1__leaf_net198
*493 clknet_1_1__leaf_net199
*494 clknet_1_1__leaf_net200
*495 clknet_1_1__leaf_net208
*496 clknet_1_1__leaf_net214
*497 clknet_1_1__leaf_net216
*498 clknet_1_1__leaf_net218
*499 clknet_1_1__leaf_net220
*500 clknet_1_1__leaf_net222
*501 clknet_1_1__leaf_net226
*502 clknet_1_1__leaf_net269
*503 clknet_1_1__leaf_net271
*504 clknet_1_1__leaf_net275
*505 clknet_1_1__leaf_net277
*506 clknet_1_1__leaf_net283
*507 clknet_1_1__leaf_net288
*508 clknet_1_1__leaf_net291
*509 clknet_1_1__leaf_net299
*510 clknet_1_1__leaf_net301
*511 clknet_1_1__leaf_net305
*512 clknet_1_1__leaf_net315
*513 clknet_1_1__leaf_net320
*514 clknet_1_1__leaf_net325
*515 clknet_1_1__leaf_net328
*516 clknet_1_1__leaf_net330
*517 clknet_1_1__leaf_net331
*518 clknet_1_1__leaf_net351
*519 clknet_1_1__leaf_net354
*520 clknet_1_1__leaf_net355
*521 clknet_1_1__leaf_net358
*522 clknet_1_1__leaf_net361
*523 clknet_1_1__leaf_net365
*524 clknet_1_1__leaf_net366
*525 clknet_1_1__leaf_net368
*526 clknet_1_1__leaf_net369
*527 clknet_1_1__leaf_net375
*528 clknet_1_1__leaf_net376
*529 clknet_1_1__leaf_net379
*530 clknet_1_1__leaf_net385
*531 clknet_1_1__leaf_net386
*532 clknet_1_1__leaf_net387
*533 clknet_1_1__leaf_net388
*534 clknet_1_1__leaf_net389
*535 clknet_1_1__leaf_net391
*536 clknet_1_1__leaf_net392
*537 clknet_1_1__leaf_net394
*538 clknet_1_1__leaf_net399
*539 clknet_1_1__leaf_net400
*540 clknet_1_1__leaf_net402
*541 clknet_1_1__leaf_net404
*542 clknet_1_1__leaf_net405
*543 clknet_1_1__leaf_net412
*544 clknet_1_1__leaf_net420
*545 clknet_1_1__leaf_net421
*546 clknet_1_1__leaf_net428
*547 clknet_1_1__leaf_net446
*548 clknet_1_1__leaf_net450
*549 clknet_1_1__leaf_net462
*550 clknet_1_1__leaf_net467
*551 clknet_1_1__leaf_net468
*552 clknet_1_1__leaf_net473
*553 clknet_1_1__leaf_net474
*554 clknet_1_1__leaf_net476
*555 clknet_1_1__leaf_net481
*556 clknet_1_1__leaf_net484
*557 clknet_1_1__leaf_net486
*558 clknet_1_1__leaf_net487
*559 clknet_1_1__leaf_net489
*560 clknet_1_1__leaf_net494
*561 clknet_1_1__leaf_net495
*562 clknet_1_1__leaf_net497
*563 clknet_1_1__leaf_net502
*564 clknet_1_1__leaf_net504
*565 clknet_1_1__leaf_net506
*566 clknet_1_1__leaf_net511
*567 clknet_1_1__leaf_net527
*568 clknet_1_1__leaf_net533
*569 clknet_1_1__leaf_net612
*570 clknet_1_1__leaf_net613
*571 clknet_1_1__leaf_net614
*572 clknet_1_1__leaf_net645
*573 clknet_1_1__leaf_net646
*574 clknet_1_1__leaf_net663
*575 clknet_1_1__leaf_net664
*576 clknet_1_1__leaf_net680
*577 clknet_1_1__leaf_net699
*578 clknet_1_1__leaf_net700
*579 clknet_1_1__leaf_net701
*580 clknet_1_1__leaf_net719
*581 clknet_1_1__leaf_net720
*582 clknet_1_1__leaf_net721
*583 clknet_1_1__leaf_net738
*584 clknet_1_1__leaf_net739
*585 clknet_1_1__leaf_net740
*586 clknet_1_1__leaf_net756
*587 clknet_1_1__leaf_net757
*588 clknet_1_1__leaf_net758
*589 clknet_1_1__leaf_net775
*590 clknet_1_1__leaf_net883
*591 clknet_1_1__leaf_net884
*592 clknet_1_1__leaf_net892
*593 clknet_1_1__leaf_net893
*594 clknet_1_1__leaf_net897
*595 clknet_1_1__leaf_net899
*596 clknet_1_1__leaf_net902
*597 clknet_1_1__leaf_net907
*598 clknet_1_1__leaf_net908
*599 clknet_1_1__leaf_net909
*600 clknet_1_1__leaf_net911
*601 clknet_1_1__leaf_net914
*602 clknet_1_1__leaf_net917
*603 clknet_1_1__leaf_net918
*604 clknet_1_1__leaf_net919
*605 clknet_1_1__leaf_net922
*606 clknet_1_1__leaf_net924
*607 clknet_1_1__leaf_net925
*608 clknet_1_1__leaf_net927
*609 clknet_1_1__leaf_net928
*610 clknet_1_1__leaf_net931
*611 clknet_1_1__leaf_net933
*612 clknet_1_1__leaf_net938
*613 clknet_1_1__leaf_net942
*614 clknet_1_1__leaf_net944
*615 clknet_1_1__leaf_net945
*616 clknet_1_1__leaf_net948
*617 clknet_1_1__leaf_net952
*618 clknet_1_1__leaf_net96
*619 clknet_1_1__leaf_net99
*620 clknet_4_0_0_clk
*621 clknet_4_10_0_clk
*622 clknet_4_11_0_clk
*623 clknet_4_12_0_clk
*624 clknet_4_13_0_clk
*625 clknet_4_14_0_clk
*626 clknet_4_15_0_clk
*627 clknet_4_1_0_clk
*628 clknet_4_2_0_clk
*629 clknet_4_3_0_clk
*630 clknet_4_4_0_clk
*631 clknet_4_5_0_clk
*632 clknet_4_6_0_clk
*633 clknet_4_7_0_clk
*634 clknet_4_8_0_clk
*635 clknet_4_9_0_clk
*636 net0
*637 net1
*638 net10
*639 net100
*640 net1000
*641 net1001
*642 net1002
*643 net1003
*644 net1004
*645 net1005
*646 net1006
*647 net1007
*648 net1008
*649 net1009
*650 net101
*651 net1010
*652 net1011
*653 net1012
*654 net1013
*655 net1014
*656 net1015
*657 net1016
*658 net1017
*659 net1018
*660 net1019
*661 net102
*662 net1020
*663 net1021
*664 net1022
*665 net1023
*666 net1024
*667 net1025
*668 net1026
*669 net1027
*670 net1028
*671 net1029
*672 net103
*673 net1030
*674 net1031
*675 net1032
*676 net1033
*677 net1034
*678 net1035
*679 net1036
*680 net1037
*681 net1038
*682 net1039
*683 net104
*684 net1040
*685 net1041
*686 net1042
*687 net1043
*688 net1044
*689 net1045
*690 net1046
*691 net1047
*692 net1048
*693 net1049
*694 net105
*695 net1050
*696 net1051
*697 net1052
*698 net1053
*699 net1054
*700 net1055
*701 net1056
*702 net1057
*703 net1058
*704 net1059
*705 net106
*706 net1060
*707 net1061
*708 net1062
*709 net1063
*710 net1064
*711 net1065
*712 net1066
*713 net1067
*714 net1068
*715 net1069
*716 net107
*717 net1070
*718 net1071
*719 net1072
*720 net1073
*721 net1074
*722 net1075
*723 net1076
*724 net1077
*725 net1078
*726 net108
*727 net109
*728 net11
*729 net110
*730 net111
*731 net112
*732 net113
*733 net114
*734 net115
*735 net116
*736 net117
*737 net118
*738 net119
*739 net12
*740 net120
*741 net121
*742 net122
*743 net123
*744 net124
*745 net125
*746 net126
*747 net127
*748 net128
*749 net129
*750 net13
*751 net130
*752 net131
*753 net132
*754 net133
*755 net134
*756 net135
*757 net136
*758 net137
*759 net138
*760 net139
*761 net14
*762 net140
*763 net141
*764 net142
*765 net143
*766 net144
*767 net145
*768 net146
*769 net147
*770 net148
*771 net149
*772 net15
*773 net150
*774 net151
*775 net152
*776 net153
*777 net154
*778 net155
*779 net156
*780 net157
*781 net158
*782 net159
*783 net16
*784 net160
*785 net161
*786 net162
*787 net163
*788 net164
*789 net165
*790 net166
*791 net167
*792 net168
*793 net169
*794 net17
*795 net170
*796 net171
*797 net172
*798 net173
*799 net174
*800 net175
*801 net176
*802 net177
*803 net178
*804 net179
*805 net18
*806 net180
*807 net181
*808 net182
*809 net183
*810 net184
*811 net185
*812 net186
*813 net187
*814 net188
*815 net189
*816 net19
*817 net190
*818 net191
*819 net192
*820 net193
*821 net194
*822 net195
*823 net196
*824 net197
*825 net198
*826 net199
*827 net2
*828 net20
*829 net200
*830 net201
*831 net202
*832 net203
*833 net204
*834 net205
*835 net206
*836 net207
*837 net208
*838 net209
*839 net21
*840 net210
*841 net211
*842 net212
*843 net213
*844 net214
*845 net215
*846 net216
*847 net217
*848 net218
*849 net219
*850 net22
*851 net220
*852 net221
*853 net222
*854 net223
*855 net224
*856 net225
*857 net226
*858 net227
*859 net228
*860 net229
*861 net23
*862 net230
*863 net231
*864 net232
*865 net233
*866 net234
*867 net235
*868 net236
*869 net237
*870 net238
*871 net239
*872 net24
*873 net240
*874 net241
*875 net242
*876 net243
*877 net244
*878 net245
*879 net246
*880 net247
*881 net248
*882 net249
*883 net25
*884 net250
*885 net251
*886 net252
*887 net253
*888 net254
*889 net255
*890 net256
*891 net257
*892 net258
*893 net259
*894 net26
*895 net260
*896 net261
*897 net262
*898 net263
*899 net264
*900 net265
*901 net266
*902 net267
*903 net268
*904 net269
*905 net27
*906 net270
*907 net271
*908 net272
*909 net273
*910 net274
*911 net275
*912 net276
*913 net277
*914 net278
*915 net279
*916 net28
*917 net280
*918 net281
*919 net282
*920 net283
*921 net284
*922 net285
*923 net286
*924 net287
*925 net288
*926 net289
*927 net29
*928 net290
*929 net291
*930 net292
*931 net293
*932 net294
*933 net295
*934 net296
*935 net297
*936 net298
*937 net299
*938 net3
*939 net30
*940 net300
*941 net301
*942 net302
*943 net303
*944 net304
*945 net305
*946 net306
*947 net307
*948 net308
*949 net309
*950 net31
*951 net310
*952 net311
*953 net312
*954 net313
*955 net314
*956 net315
*957 net316
*958 net317
*959 net318
*960 net319
*961 net32
*962 net320
*963 net321
*964 net322
*965 net323
*966 net324
*967 net325
*968 net326
*969 net327
*970 net328
*971 net329
*972 net33
*973 net330
*974 net331
*975 net332
*976 net333
*977 net334
*978 net335
*979 net336
*980 net337
*981 net338
*982 net339
*983 net34
*984 net340
*985 net341
*986 net342
*987 net343
*988 net344
*989 net345
*990 net346
*991 net347
*992 net348
*993 net349
*994 net35
*995 net350
*996 net351
*997 net352
*998 net353
*999 net354
*1000 net355
*1001 net356
*1002 net357
*1003 net358
*1004 net359
*1005 net36
*1006 net360
*1007 net361
*1008 net362
*1009 net363
*1010 net364
*1011 net365
*1012 net366
*1013 net367
*1014 net368
*1015 net369
*1016 net37
*1017 net370
*1018 net371
*1019 net372
*1020 net373
*1021 net374
*1022 net375
*1023 net376
*1024 net377
*1025 net378
*1026 net379
*1027 net38
*1028 net380
*1029 net381
*1030 net382
*1031 net383
*1032 net384
*1033 net385
*1034 net386
*1035 net387
*1036 net388
*1037 net389
*1038 net39
*1039 net390
*1040 net391
*1041 net392
*1042 net393
*1043 net394
*1044 net395
*1045 net396
*1046 net397
*1047 net398
*1048 net399
*1049 net4
*1050 net40
*1051 net400
*1052 net401
*1053 net402
*1054 net403
*1055 net404
*1056 net405
*1057 net406
*1058 net407
*1059 net408
*1060 net409
*1061 net41
*1062 net410
*1063 net411
*1064 net412
*1065 net413
*1066 net414
*1067 net415
*1068 net416
*1069 net417
*1070 net418
*1071 net419
*1072 net42
*1073 net420
*1074 net421
*1075 net422
*1076 net423
*1077 net424
*1078 net425
*1079 net426
*1080 net427
*1081 net428
*1082 net429
*1083 net43
*1084 net430
*1085 net431
*1086 net432
*1087 net433
*1088 net434
*1089 net435
*1090 net436
*1091 net437
*1092 net438
*1093 net439
*1094 net44
*1095 net440
*1096 net441
*1097 net442
*1098 net443
*1099 net444
*1100 net445
*1101 net446
*1102 net447
*1103 net448
*1104 net449
*1105 net45
*1106 net450
*1107 net451
*1108 net452
*1109 net453
*1110 net454
*1111 net455
*1112 net456
*1113 net457
*1114 net458
*1115 net459
*1116 net46
*1117 net460
*1118 net461
*1119 net462
*1120 net463
*1121 net464
*1122 net465
*1123 net466
*1124 net467
*1125 net468
*1126 net469
*1127 net47
*1128 net470
*1129 net471
*1130 net472
*1131 net473
*1132 net474
*1133 net475
*1134 net476
*1135 net477
*1136 net478
*1137 net479
*1138 net48
*1139 net480
*1140 net481
*1141 net482
*1142 net483
*1143 net484
*1144 net485
*1145 net486
*1146 net487
*1147 net488
*1148 net489
*1149 net49
*1150 net490
*1151 net491
*1152 net492
*1153 net493
*1154 net494
*1155 net495
*1156 net496
*1157 net497
*1158 net498
*1159 net499
*1160 net5
*1161 net50
*1162 net500
*1163 net501
*1164 net502
*1165 net503
*1166 net504
*1167 net505
*1168 net506
*1169 net507
*1170 net508
*1171 net509
*1172 net51
*1173 net510
*1174 net511
*1175 net512
*1176 net513
*1177 net514
*1178 net515
*1179 net516
*1180 net517
*1181 net518
*1182 net519
*1183 net52
*1184 net520
*1185 net521
*1186 net522
*1187 net523
*1188 net524
*1189 net525
*1190 net526
*1191 net527
*1192 net528
*1193 net529
*1194 net53
*1195 net530
*1196 net531
*1197 net532
*1198 net533
*1199 net534
*1200 net535
*1201 net536
*1202 net537
*1203 net538
*1204 net539
*1205 net54
*1206 net540
*1207 net541
*1208 net542
*1209 net543
*1210 net544
*1211 net545
*1212 net546
*1213 net547
*1214 net548
*1215 net549
*1216 net55
*1217 net550
*1218 net551
*1219 net552
*1220 net553
*1221 net554
*1222 net555
*1223 net556
*1224 net557
*1225 net558
*1226 net559
*1227 net56
*1228 net560
*1229 net561
*1230 net562
*1231 net563
*1232 net564
*1233 net565
*1234 net566
*1235 net567
*1236 net568
*1237 net569
*1238 net57
*1239 net570
*1240 net571
*1241 net572
*1242 net573
*1243 net574
*1244 net575
*1245 net576
*1246 net577
*1247 net578
*1248 net579
*1249 net58
*1250 net580
*1251 net581
*1252 net582
*1253 net583
*1254 net584
*1255 net585
*1256 net586
*1257 net587
*1258 net588
*1259 net589
*1260 net59
*1261 net590
*1262 net591
*1263 net592
*1264 net593
*1265 net594
*1266 net595
*1267 net596
*1268 net597
*1269 net598
*1270 net599
*1271 net6
*1272 net60
*1273 net600
*1274 net601
*1275 net602
*1276 net603
*1277 net604
*1278 net605
*1279 net606
*1280 net607
*1281 net608
*1282 net609
*1283 net61
*1284 net610
*1285 net611
*1286 net612
*1287 net613
*1288 net614
*1289 net615
*1290 net616
*1291 net617
*1292 net618
*1293 net619
*1294 net62
*1295 net620
*1296 net621
*1297 net622
*1298 net623
*1299 net624
*1300 net625
*1301 net626
*1302 net627
*1303 net628
*1304 net629
*1305 net63
*1306 net630
*1307 net631
*1308 net632
*1309 net633
*1310 net634
*1311 net635
*1312 net636
*1313 net637
*1314 net638
*1315 net639
*1316 net64
*1317 net640
*1318 net641
*1319 net642
*1320 net643
*1321 net644
*1322 net645
*1323 net646
*1324 net647
*1325 net648
*1326 net649
*1327 net65
*1328 net650
*1329 net651
*1330 net652
*1331 net653
*1332 net654
*1333 net655
*1334 net656
*1335 net657
*1336 net658
*1337 net659
*1338 net66
*1339 net660
*1340 net661
*1341 net662
*1342 net663
*1343 net664
*1344 net665
*1345 net666
*1346 net667
*1347 net668
*1348 net669
*1349 net67
*1350 net670
*1351 net671
*1352 net672
*1353 net673
*1354 net674
*1355 net675
*1356 net676
*1357 net677
*1358 net678
*1359 net679
*1360 net68
*1361 net680
*1362 net681
*1363 net682
*1364 net683
*1365 net684
*1366 net685
*1367 net686
*1368 net687
*1369 net688
*1370 net689
*1371 net69
*1372 net690
*1373 net691
*1374 net692
*1375 net693
*1376 net694
*1377 net695
*1378 net696
*1379 net697
*1380 net698
*1381 net699
*1382 net7
*1383 net70
*1384 net700
*1385 net701
*1386 net702
*1387 net703
*1388 net704
*1389 net705
*1390 net706
*1391 net707
*1392 net708
*1393 net709
*1394 net71
*1395 net710
*1396 net711
*1397 net712
*1398 net713
*1399 net714
*1400 net715
*1401 net716
*1402 net717
*1403 net718
*1404 net719
*1405 net72
*1406 net720
*1407 net721
*1408 net722
*1409 net723
*1410 net724
*1411 net725
*1412 net726
*1413 net727
*1414 net728
*1415 net729
*1416 net73
*1417 net730
*1418 net731
*1419 net732
*1420 net733
*1421 net734
*1422 net735
*1423 net736
*1424 net737
*1425 net738
*1426 net739
*1427 net74
*1428 net740
*1429 net741
*1430 net742
*1431 net743
*1432 net744
*1433 net745
*1434 net746
*1435 net747
*1436 net748
*1437 net749
*1438 net75
*1439 net750
*1440 net751
*1441 net752
*1442 net753
*1443 net754
*1444 net755
*1445 net756
*1446 net757
*1447 net758
*1448 net759
*1449 net76
*1450 net760
*1451 net761
*1452 net762
*1453 net763
*1454 net764
*1455 net765
*1456 net766
*1457 net767
*1458 net768
*1459 net769
*1460 net77
*1461 net770
*1462 net771
*1463 net772
*1464 net773
*1465 net774
*1466 net775
*1467 net776
*1468 net777
*1469 net778
*1470 net779
*1471 net78
*1472 net780
*1473 net781
*1474 net782
*1475 net783
*1476 net784
*1477 net785
*1478 net786
*1479 net787
*1480 net788
*1481 net789
*1482 net79
*1483 net790
*1484 net791
*1485 net792
*1486 net793
*1487 net794
*1488 net795
*1489 net796
*1490 net797
*1491 net798
*1492 net799
*1493 net8
*1494 net80
*1495 net800
*1496 net801
*1497 net802
*1498 net803
*1499 net804
*1500 net805
*1501 net806
*1502 net807
*1503 net808
*1504 net809
*1505 net81
*1506 net810
*1507 net811
*1508 net812
*1509 net813
*1510 net814
*1511 net815
*1512 net816
*1513 net817
*1514 net818
*1515 net819
*1516 net82
*1517 net820
*1518 net821
*1519 net822
*1520 net823
*1521 net824
*1522 net825
*1523 net826
*1524 net827
*1525 net828
*1526 net829
*1527 net83
*1528 net830
*1529 net831
*1530 net832
*1531 net833
*1532 net834
*1533 net835
*1534 net836
*1535 net837
*1536 net838
*1537 net839
*1538 net84
*1539 net840
*1540 net841
*1541 net842
*1542 net843
*1543 net844
*1544 net845
*1545 net846
*1546 net847
*1547 net848
*1548 net849
*1549 net85
*1550 net850
*1551 net851
*1552 net852
*1553 net853
*1554 net854
*1555 net855
*1556 net856
*1557 net857
*1558 net858
*1559 net859
*1560 net86
*1561 net860
*1562 net861
*1563 net862
*1564 net863
*1565 net864
*1566 net865
*1567 net866
*1568 net867
*1569 net868
*1570 net869
*1571 net87
*1572 net870
*1573 net871
*1574 net872
*1575 net873
*1576 net874
*1577 net875
*1578 net876
*1579 net877
*1580 net878
*1581 net879
*1582 net88
*1583 net880
*1584 net881
*1585 net882
*1586 net883
*1587 net884
*1588 net885
*1589 net886
*1590 net887
*1591 net888
*1592 net889
*1593 net89
*1594 net890
*1595 net891
*1596 net892
*1597 net893
*1598 net894
*1599 net895
*1600 net896
*1601 net897
*1602 net898
*1603 net899
*1604 net9
*1605 net90
*1606 net900
*1607 net901
*1608 net902
*1609 net903
*1610 net904
*1611 net905
*1612 net906
*1613 net907
*1614 net908
*1615 net909
*1616 net91
*1617 net910
*1618 net911
*1619 net912
*1620 net913
*1621 net914
*1622 net915
*1623 net916
*1624 net917
*1625 net918
*1626 net919
*1627 net92
*1628 net920
*1629 net921
*1630 net922
*1631 net923
*1632 net924
*1633 net925
*1634 net926
*1635 net927
*1636 net928
*1637 net929
*1638 net93
*1639 net930
*1640 net931
*1641 net932
*1642 net933
*1643 net934
*1644 net935
*1645 net936
*1646 net937
*1647 net938
*1648 net939
*1649 net94
*1650 net940
*1651 net941
*1652 net942
*1653 net943
*1654 net944
*1655 net945
*1656 net946
*1657 net947
*1658 net948
*1659 net949
*1660 net95
*1661 net950
*1662 net951
*1663 net952
*1664 net953
*1665 net954
*1666 net955
*1667 net956
*1668 net957
*1669 net958
*1670 net959
*1671 net96
*1672 net960
*1673 net961
*1674 net962
*1675 net963
*1676 net964
*1677 net965
*1678 net966
*1679 net967
*1680 net968
*1681 net969
*1682 net97
*1683 net970
*1684 net971
*1685 net972
*1686 net973
*1687 net974
*1688 net975
*1689 net976
*1690 net977
*1691 net978
*1692 net979
*1693 net98
*1694 net980
*1695 net981
*1696 net982
*1697 net983
*1698 net984
*1699 net985
*1700 net986
*1701 net987
*1702 net988
*1703 net989
*1704 net99
*1705 net990
*1706 net991
*1707 net992
*1708 net993
*1709 net994
*1710 net995
*1711 net996
*1712 net997
*1713 net998
*1714 net999
*1715 ANTENNA_1
*1716 ANTENNA_2
*1717 ANTENNA_3
*1718 ANTENNA_c100_A0
*1719 ANTENNA_c100_A3
*1720 ANTENNA_c100_S0
*1721 ANTENNA_c100_S1
*1722 ANTENNA_c100_X
*1723 ANTENNA_c101_A1
*1724 ANTENNA_c101_A2
*1725 ANTENNA_c101_A3
*1726 ANTENNA_c101_S0
*1727 ANTENNA_c101_S1
*1728 ANTENNA_c102_A2
*1729 ANTENNA_c102_A3
*1730 ANTENNA_c103_A2
*1731 ANTENNA_c103_S0
*1732 ANTENNA_c103_S1
*1733 ANTENNA_c103_X
*1734 ANTENNA_c104_S0
*1735 ANTENNA_c104_S1
*1736 ANTENNA_c104_X
*1737 ANTENNA_c105_A3
*1738 ANTENNA_c105_S1
*1739 ANTENNA_c105_X
*1740 ANTENNA_c106_A1
*1741 ANTENNA_c106_S1
*1742 ANTENNA_c106_X
*1743 ANTENNA_c107_A3
*1744 ANTENNA_c107_S0
*1745 ANTENNA_c107_S1
*1746 ANTENNA_c108_A1
*1747 ANTENNA_c108_A3
*1748 ANTENNA_c108_S1
*1749 ANTENNA_c109_A2
*1750 ANTENNA_c109_S0
*1751 ANTENNA_c109_S1
*1752 ANTENNA_c109_X
*1753 ANTENNA_c110_A2
*1754 ANTENNA_c110_B1
*1755 ANTENNA_c110_C1
*1756 ANTENNA_c110_D1
*1757 ANTENNA_c111_A1
*1758 ANTENNA_c111_C1
*1759 ANTENNA_c111_D1
*1760 ANTENNA_c112_B1
*1761 ANTENNA_c112_D1
*1762 ANTENNA_c113_A1
*1763 ANTENNA_c115_A2
*1764 ANTENNA_c117_A2
*1765 ANTENNA_c118_A2
*1766 ANTENNA_c118_D1
*1767 ANTENNA_c118_X
*1768 ANTENNA_c119_C1
*1769 ANTENNA_c119_D1
*1770 ANTENNA_c120_A3
*1771 ANTENNA_c120_S0
*1772 ANTENNA_c120_S1
*1773 ANTENNA_c121_A2
*1774 ANTENNA_c121_B1
*1775 ANTENNA_c122_A1
*1776 ANTENNA_c123_A2
*1777 ANTENNA_c124_A2
*1778 ANTENNA_c126_A2
*1779 ANTENNA_c127_A0
*1780 ANTENNA_c127_S0
*1781 ANTENNA_c128_A2
*1782 ANTENNA_c128_A3
*1783 ANTENNA_c128_S0
*1784 ANTENNA_c130_S0
*1785 ANTENNA_c130_X
*1786 ANTENNA_c131_A2
*1787 ANTENNA_c131_B1
*1788 ANTENNA_c132_A1
*1789 ANTENNA_c132_A2
*1790 ANTENNA_c132_C1
*1791 ANTENNA_c132_D1
*1792 ANTENNA_c133_A1
*1793 ANTENNA_c133_A2
*1794 ANTENNA_c133_B1
*1795 ANTENNA_c133_C1
*1796 ANTENNA_c134_A1
*1797 ANTENNA_c134_A2
*1798 ANTENNA_c134_C1
*1799 ANTENNA_c134_D1
*1800 ANTENNA_c134_X
*1801 ANTENNA_c135_A1
*1802 ANTENNA_c135_A2
*1803 ANTENNA_c135_A3
*1804 ANTENNA_c135_S0
*1805 ANTENNA_c135_S1
*1806 ANTENNA_c135_X
*1807 ANTENNA_c136_A1
*1808 ANTENNA_c136_A2
*1809 ANTENNA_c137_A2
*1810 ANTENNA_c137_B1
*1811 ANTENNA_c137_X
*1812 ANTENNA_c138_A1
*1813 ANTENNA_c138_A2
*1814 ANTENNA_c138_B1
*1815 ANTENNA_c138_C1
*1816 ANTENNA_c138_X
*1817 ANTENNA_c139_A1
*1818 ANTENNA_c139_B1
*1819 ANTENNA_c140_A0
*1820 ANTENNA_c140_A1
*1821 ANTENNA_c140_S0
*1822 ANTENNA_c140_S1
*1823 ANTENNA_c141_A1
*1824 ANTENNA_c141_A2
*1825 ANTENNA_c141_B1
*1826 ANTENNA_c142_B1
*1827 ANTENNA_c142_C1
*1828 ANTENNA_c143_B1
*1829 ANTENNA_c143_C1
*1830 ANTENNA_c143_X
*1831 ANTENNA_c144_A0
*1832 ANTENNA_c144_A2
*1833 ANTENNA_c144_A3
*1834 ANTENNA_c145_A2
*1835 ANTENNA_c145_C1
*1836 ANTENNA_c145_D1
*1837 ANTENNA_c146_A2
*1838 ANTENNA_c146_S1
*1839 ANTENNA_c146_X
*1840 ANTENNA_c147_A0