*SPEF "ieee 1481-1999"
*DESIGN "netlist_1"
*DATE "21:21:47 Thursday August 15, 2024"
*VENDOR "The OpenROAD Project"
*PROGRAM "OpenROAD"
*VERSION "d423155d69de7f683a23f6916ead418a615ad4ad"
*DESIGN_FLOW "NAME_SCOPE LOCAL" "PIN_CAP NONE"
*DIVIDER /
*DELIMITER :
*BUS_DELIMITER []
*T_UNIT 1 NS
*C_UNIT 1 PF
*R_UNIT 1 OHM
*L_UNIT 1 HENRY

*NAME_MAP
*3 clk
*4 in0
*5 in1
*6 in10
*7 in11
*8 in12
*9 in13
*10 in14
*11 in15
*12 in16
*13 in17
*14 in18
*15 in19
*16 in2
*17 in20
*18 in21
*19 in22
*20 in23
*21 in24
*22 in25
*23 in26
*24 in27
*25 in28
*26 in29
*27 in3
*28 in30
*29 in31
*30 in32
*31 in33
*32 in34
*33 in35
*34 in36
*35 in37
*36 in38
*37 in39
*38 in4
*39 in40
*40 in41
*41 in42
*42 in43
*43 in44
*44 in45
*45 in46
*46 in47
*47 in48
*48 in49
*49 in5
*50 in50
*51 in51
*52 in52
*53 in53
*54 in54
*55 in55
*56 in56
*57 in57
*58 in58
*59 in59
*60 in6
*61 in60
*62 in61
*63 in62
*64 in63
*65 in64
*66 in65
*67 in66
*68 in67
*69 in68
*70 in69
*71 in7
*72 in70
*73 in71
*74 in72
*75 in73
*76 in74
*77 in75
*78 in76
*79 in77
*80 in78
*81 in79
*82 in8
*83 in80
*84 in81
*85 in82
*86 in83
*87 in84
*88 in85
*89 in86
*90 in87
*91 in88
*92 in89
*93 in9
*94 in90
*95 in91
*96 in92
*97 in93
*98 in94
*99 in95
*100 in96
*101 in97
*102 in98
*103 in99
*104 out0
*105 out1
*106 out10
*107 out11
*108 out12
*109 out13
*110 out14
*111 out15
*112 out16
*113 out17
*114 out18
*115 out19
*116 out2
*117 out20
*118 out21
*119 out22
*120 out23
*121 out24
*122 out25
*123 out26
*124 out27
*125 out28
*126 out29
*127 out3
*128 out30
*129 out31
*130 out32
*131 out33
*132 out34
*133 out35
*134 out36
*135 out37
*136 out38
*137 out39
*138 out4
*139 out40
*140 out41
*141 out42
*142 out43
*143 out44
*144 out45
*145 out46
*146 out47
*147 out48
*148 out49
*149 out5
*150 out50
*151 out51
*152 out52
*153 out53
*154 out54
*155 out55
*156 out56
*157 out57
*158 out58
*159 out59
*160 out6
*161 out60
*162 out61
*163 out62
*164 out63
*165 out64
*166 out65
*167 out66
*168 out67
*169 out68
*170 out69
*171 out7
*172 out70
*173 out71
*174 out72
*175 out73
*176 out74
*177 out75
*178 out76
*179 out77
*180 out78
*181 out79
*182 out8
*183 out80
*184 out81
*185 out82
*186 out83
*187 out84
*188 out85
*189 out86
*190 out87
*191 out88
*192 out89
*193 out9
*194 out90
*195 out91
*196 out92
*197 out93
*198 out94
*199 out95
*200 out96
*201 out97
*202 out98
*203 out99
*204 rst
*205 clknet_0_clk
*206 clknet_0_net100
*207 clknet_0_net183
*208 clknet_0_net185
*209 clknet_0_net187
*210 clknet_0_net202
*211 clknet_0_net210
*212 clknet_0_net224
*213 clknet_0_net259
*214 clknet_0_net262
*215 clknet_0_net265
*216 clknet_0_net275
*217 clknet_0_net277
*218 clknet_0_net278
*219 clknet_0_net287
*220 clknet_0_net293
*221 clknet_0_net300
*222 clknet_0_net303
*223 clknet_0_net304
*224 clknet_0_net306
*225 clknet_0_net307
*226 clknet_0_net311
*227 clknet_0_net314
*228 clknet_0_net316
*229 clknet_0_net325
*230 clknet_0_net330
*231 clknet_0_net335
*232 clknet_0_net338
*233 clknet_0_net339
*234 clknet_0_net361
*235 clknet_0_net363
*236 clknet_0_net364
*237 clknet_0_net365
*238 clknet_0_net368
*239 clknet_0_net376
*240 clknet_0_net382
*241 clknet_0_net383
*242 clknet_0_net384
*243 clknet_0_net396
*244 clknet_0_net398
*245 clknet_0_net416
*246 clknet_0_net422
*247 clknet_0_net423
*248 clknet_0_net424
*249 clknet_0_net427
*250 clknet_0_net436
*251 clknet_0_net466
*252 clknet_0_net478
*253 clknet_0_net484
*254 clknet_0_net489
*255 clknet_0_net496
*256 clknet_0_net499
*257 clknet_0_net506
*258 clknet_0_net525
*259 clknet_0_net526
*260 clknet_0_net527
*261 clknet_0_net529
*262 clknet_0_net532
*263 clknet_0_net547
*264 clknet_0_net649
*265 clknet_0_net650
*266 clknet_0_net671
*267 clknet_0_net672
*268 clknet_0_net673
*269 clknet_0_net689
*270 clknet_0_net690
*271 clknet_0_net691
*272 clknet_0_net708
*273 clknet_0_net709
*274 clknet_0_net726
*275 clknet_0_net727
*276 clknet_0_net728
*277 clknet_0_net746
*278 clknet_0_net764
*279 clknet_0_net868
*280 clknet_0_net875
*281 clknet_0_net878
*282 clknet_0_net879
*283 clknet_0_net88
*284 clknet_0_net880
*285 clknet_0_net887
*286 clknet_0_net891
*287 clknet_0_net892
*288 clknet_0_net894
*289 clknet_0_net907
*290 clknet_0_net909
*291 clknet_0_net910
*292 clknet_0_net911
*293 clknet_0_net912
*294 clknet_0_net922
*295 clknet_0_net925
*296 clknet_0_net94
*297 clknet_1_0__leaf_net100
*298 clknet_1_0__leaf_net183
*299 clknet_1_0__leaf_net185
*300 clknet_1_0__leaf_net187
*301 clknet_1_0__leaf_net202
*302 clknet_1_0__leaf_net210
*303 clknet_1_0__leaf_net224
*304 clknet_1_0__leaf_net259
*305 clknet_1_0__leaf_net262
*306 clknet_1_0__leaf_net265
*307 clknet_1_0__leaf_net275
*308 clknet_1_0__leaf_net277
*309 clknet_1_0__leaf_net278
*310 clknet_1_0__leaf_net287
*311 clknet_1_0__leaf_net293
*312 clknet_1_0__leaf_net300
*313 clknet_1_0__leaf_net303
*314 clknet_1_0__leaf_net304
*315 clknet_1_0__leaf_net306
*316 clknet_1_0__leaf_net307
*317 clknet_1_0__leaf_net311
*318 clknet_1_0__leaf_net314
*319 clknet_1_0__leaf_net316
*320 clknet_1_0__leaf_net325
*321 clknet_1_0__leaf_net330
*322 clknet_1_0__leaf_net335
*323 clknet_1_0__leaf_net338
*324 clknet_1_0__leaf_net339
*325 clknet_1_0__leaf_net361
*326 clknet_1_0__leaf_net363
*327 clknet_1_0__leaf_net364
*328 clknet_1_0__leaf_net365
*329 clknet_1_0__leaf_net368
*330 clknet_1_0__leaf_net376
*331 clknet_1_0__leaf_net382
*332 clknet_1_0__leaf_net383
*333 clknet_1_0__leaf_net384
*334 clknet_1_0__leaf_net396
*335 clknet_1_0__leaf_net398
*336 clknet_1_0__leaf_net416
*337 clknet_1_0__leaf_net422
*338 clknet_1_0__leaf_net423
*339 clknet_1_0__leaf_net424
*340 clknet_1_0__leaf_net427
*341 clknet_1_0__leaf_net436
*342 clknet_1_0__leaf_net466
*343 clknet_1_0__leaf_net478
*344 clknet_1_0__leaf_net484
*345 clknet_1_0__leaf_net489
*346 clknet_1_0__leaf_net496
*347 clknet_1_0__leaf_net499
*348 clknet_1_0__leaf_net506
*349 clknet_1_0__leaf_net525
*350 clknet_1_0__leaf_net526
*351 clknet_1_0__leaf_net527
*352 clknet_1_0__leaf_net529
*353 clknet_1_0__leaf_net532
*354 clknet_1_0__leaf_net547
*355 clknet_1_0__leaf_net649
*356 clknet_1_0__leaf_net650
*357 clknet_1_0__leaf_net671
*358 clknet_1_0__leaf_net672
*359 clknet_1_0__leaf_net673
*360 clknet_1_0__leaf_net689
*361 clknet_1_0__leaf_net690
*362 clknet_1_0__leaf_net691
*363 clknet_1_0__leaf_net708
*364 clknet_1_0__leaf_net709
*365 clknet_1_0__leaf_net726
*366 clknet_1_0__leaf_net727
*367 clknet_1_0__leaf_net728
*368 clknet_1_0__leaf_net746
*369 clknet_1_0__leaf_net764
*370 clknet_1_0__leaf_net868
*371 clknet_1_0__leaf_net875
*372 clknet_1_0__leaf_net878
*373 clknet_1_0__leaf_net879
*374 clknet_1_0__leaf_net88
*375 clknet_1_0__leaf_net880
*376 clknet_1_0__leaf_net887
*377 clknet_1_0__leaf_net891
*378 clknet_1_0__leaf_net892
*379 clknet_1_0__leaf_net894
*380 clknet_1_0__leaf_net907
*381 clknet_1_0__leaf_net909
*382 clknet_1_0__leaf_net910
*383 clknet_1_0__leaf_net911
*384 clknet_1_0__leaf_net912
*385 clknet_1_0__leaf_net922
*386 clknet_1_0__leaf_net925
*387 clknet_1_0__leaf_net94
*388 clknet_1_1__leaf_net100
*389 clknet_1_1__leaf_net183
*390 clknet_1_1__leaf_net185
*391 clknet_1_1__leaf_net187
*392 clknet_1_1__leaf_net202
*393 clknet_1_1__leaf_net210
*394 clknet_1_1__leaf_net224
*395 clknet_1_1__leaf_net259
*396 clknet_1_1__leaf_net262
*397 clknet_1_1__leaf_net265
*398 clknet_1_1__leaf_net275
*399 clknet_1_1__leaf_net277
*400 clknet_1_1__leaf_net278
*401 clknet_1_1__leaf_net287
*402 clknet_1_1__leaf_net293
*403 clknet_1_1__leaf_net300
*404 clknet_1_1__leaf_net303
*405 clknet_1_1__leaf_net304
*406 clknet_1_1__leaf_net306
*407 clknet_1_1__leaf_net307
*408 clknet_1_1__leaf_net311
*409 clknet_1_1__leaf_net314
*410 clknet_1_1__leaf_net316
*411 clknet_1_1__leaf_net325
*412 clknet_1_1__leaf_net330
*413 clknet_1_1__leaf_net335
*414 clknet_1_1__leaf_net338
*415 clknet_1_1__leaf_net339
*416 clknet_1_1__leaf_net361
*417 clknet_1_1__leaf_net363
*418 clknet_1_1__leaf_net364
*419 clknet_1_1__leaf_net365
*420 clknet_1_1__leaf_net368
*421 clknet_1_1__leaf_net376
*422 clknet_1_1__leaf_net382
*423 clknet_1_1__leaf_net383
*424 clknet_1_1__leaf_net384
*425 clknet_1_1__leaf_net396
*426 clknet_1_1__leaf_net398
*427 clknet_1_1__leaf_net416
*428 clknet_1_1__leaf_net422
*429 clknet_1_1__leaf_net423
*430 clknet_1_1__leaf_net424
*431 clknet_1_1__leaf_net427
*432 clknet_1_1__leaf_net436
*433 clknet_1_1__leaf_net466
*434 clknet_1_1__leaf_net478
*435 clknet_1_1__leaf_net484
*436 clknet_1_1__leaf_net489
*437 clknet_1_1__leaf_net496
*438 clknet_1_1__leaf_net499
*439 clknet_1_1__leaf_net506
*440 clknet_1_1__leaf_net525
*441 clknet_1_1__leaf_net526
*442 clknet_1_1__leaf_net527
*443 clknet_1_1__leaf_net529
*444 clknet_1_1__leaf_net532
*445 clknet_1_1__leaf_net547
*446 clknet_1_1__leaf_net649
*447 clknet_1_1__leaf_net650
*448 clknet_1_1__leaf_net671
*449 clknet_1_1__leaf_net672
*450 clknet_1_1__leaf_net673
*451 clknet_1_1__leaf_net689
*452 clknet_1_1__leaf_net690
*453 clknet_1_1__leaf_net691
*454 clknet_1_1__leaf_net708
*455 clknet_1_1__leaf_net709
*456 clknet_1_1__leaf_net726
*457 clknet_1_1__leaf_net727
*458 clknet_1_1__leaf_net728
*459 clknet_1_1__leaf_net746
*460 clknet_1_1__leaf_net764
*461 clknet_1_1__leaf_net868
*462 clknet_1_1__leaf_net875
*463 clknet_1_1__leaf_net878
*464 clknet_1_1__leaf_net879
*465 clknet_1_1__leaf_net88
*466 clknet_1_1__leaf_net880
*467 clknet_1_1__leaf_net887
*468 clknet_1_1__leaf_net891
*469 clknet_1_1__leaf_net892
*470 clknet_1_1__leaf_net894
*471 clknet_1_1__leaf_net907
*472 clknet_1_1__leaf_net909
*473 clknet_1_1__leaf_net910
*474 clknet_1_1__leaf_net911
*475 clknet_1_1__leaf_net912
*476 clknet_1_1__leaf_net922
*477 clknet_1_1__leaf_net925
*478 clknet_1_1__leaf_net94
*479 clknet_4_0_0_clk
*480 clknet_4_10_0_clk
*481 clknet_4_11_0_clk
*482 clknet_4_12_0_clk
*483 clknet_4_13_0_clk
*484 clknet_4_14_0_clk
*485 clknet_4_15_0_clk
*486 clknet_4_1_0_clk
*487 clknet_4_2_0_clk
*488 clknet_4_3_0_clk
*489 clknet_4_4_0_clk
*490 clknet_4_5_0_clk
*491 clknet_4_6_0_clk
*492 clknet_4_7_0_clk
*493 clknet_4_8_0_clk
*494 clknet_4_9_0_clk
*495 net0
*496 net1
*497 net10
*498 net100
*499 net1000
*500 net1001
*501 net1002
*502 net1003
*503 net1004
*504 net1005
*505 net1006
*506 net1007
*507 net1008
*508 net1009
*509 net101
*510 net1010
*511 net1011
*512 net1012
*513 net1013
*514 net1014
*515 net1015
*516 net1016
*517 net1017
*518 net1018
*519 net1019
*520 net102
*521 net1020
*522 net1021
*523 net1022
*524 net1023
*525 net1024
*526 net1025
*527 net1026
*528 net1027
*529 net1028
*530 net1029
*531 net103
*532 net1030
*533 net1031
*534 net1032
*535 net1033
*536 net1034
*537 net1035
*538 net1036
*539 net1037
*540 net1038
*541 net1039
*542 net104
*543 net1040
*544 net1041
*545 net1042
*546 net1043
*547 net1044
*548 net1045
*549 net1046
*550 net1047
*551 net1048
*552 net1049
*553 net105
*554 net1050
*555 net1051
*556 net1052
*557 net1053
*558 net1054
*559 net1055
*560 net1056
*561 net1057
*562 net1058
*563 net1059
*564 net106
*565 net1060
*566 net1061
*567 net1062
*568 net1063
*569 net1064
*570 net1065
*571 net1066
*572 net1067
*573 net1068
*574 net1069
*575 net107
*576 net1070
*577 net1071
*578 net1072
*579 net1073
*580 net1074
*581 net1075
*582 net1076
*583 net1077
*584 net1078
*585 net1079
*586 net108
*587 net1080
*588 net1081
*589 net1082
*590 net1083
*591 net1084
*592 net1085
*593 net1086
*594 net1087
*595 net1088
*596 net1089
*597 net109
*598 net1090
*599 net1091
*600 net1092
*601 net1093
*602 net1094
*603 net1095
*604 net1096
*605 net1097
*606 net1098
*607 net1099
*608 net11
*609 net110
*610 net1100
*611 net1101
*612 net1102
*613 net1103
*614 net1104
*615 net1105
*616 net1106
*617 net1107
*618 net1108
*619 net1109
*620 net111
*621 net1110
*622 net1111
*623 net112
*624 net113
*625 net114
*626 net115
*627 net116
*628 net117
*629 net118
*630 net119
*631 net12
*632 net120
*633 net121
*634 net122
*635 net123
*636 net124
*637 net125
*638 net126
*639 net127
*640 net128
*641 net129
*642 net13
*643 net130
*644 net131
*645 net132
*646 net133
*647 net134
*648 net135
*649 net136
*650 net137
*651 net138
*652 net139
*653 net14
*654 net140
*655 net141
*656 net142
*657 net143
*658 net144
*659 net145
*660 net146
*661 net147
*662 net148
*663 net149
*664 net15
*665 net150
*666 net151
*667 net152
*668 net153
*669 net154
*670 net155
*671 net156
*672 net157
*673 net158
*674 net159
*675 net16
*676 net160
*677 net161
*678 net162
*679 net163
*680 net164
*681 net165
*682 net166
*683 net167
*684 net168
*685 net169
*686 net17
*687 net170
*688 net171
*689 net172
*690 net173
*691 net174
*692 net175
*693 net176
*694 net177
*695 net178
*696 net179
*697 net18
*698 net180
*699 net181
*700 net182
*701 net183
*702 net184
*703 net185
*704 net186
*705 net187
*706 net188
*707 net189
*708 net19
*709 net190
*710 net191
*711 net192
*712 net193
*713 net194
*714 net195
*715 net196
*716 net197
*717 net198
*718 net199
*719 net2
*720 net20
*721 net200
*722 net201
*723 net202
*724 net203
*725 net204
*726 net205
*727 net206
*728 net207
*729 net208
*730 net209
*731 net21
*732 net210
*733 net211
*734 net212
*735 net213
*736 net214
*737 net215
*738 net216
*739 net217
*740 net218
*741 net219
*742 net22
*743 net220
*744 net221
*745 net222
*746 net223
*747 net224
*748 net225
*749 net226
*750 net227
*751 net228
*752 net229
*753 net23
*754 net230
*755 net231
*756 net232
*757 net233
*758 net234
*759 net235
*760 net236
*761 net237
*762 net238
*763 net239
*764 net24
*765 net240
*766 net241
*767 net242
*768 net243
*769 net244
*770 net245
*771 net246
*772 net247
*773 net248
*774 net249
*775 net25
*776 net250
*777 net251
*778 net252
*779 net253
*780 net254
*781 net255
*782 net256
*783 net257
*784 net258
*785 net259
*786 net26
*787 net260
*788 net261
*789 net262
*790 net263
*791 net264
*792 net265
*793 net266
*794 net267
*795 net268
*796 net269
*797 net27
*798 net270
*799 net271
*800 net272
*801 net273
*802 net274
*803 net275
*804 net276
*805 net277
*806 net278
*807 net279
*808 net28
*809 net280
*810 net281
*811 net282
*812 net283
*813 net284
*814 net285
*815 net286
*816 net287
*817 net288
*818 net289
*819 net29
*820 net290
*821 net291
*822 net292
*823 net293
*824 net294
*825 net295
*826 net296
*827 net297
*828 net298
*829 net299
*830 net3
*831 net30
*832 net300
*833 net301
*834 net302
*835 net303
*836 net304
*837 net305
*838 net306
*839 net307
*840 net308
*841 net309
*842 net31
*843 net310
*844 net311
*845 net312
*846 net313
*847 net314
*848 net315
*849 net316
*850 net317
*851 net318
*852 net319
*853 net32
*854 net320
*855 net321
*856 net322
*857 net323
*858 net324
*859 net325
*860 net326
*861 net327
*862 net328
*863 net329
*864 net33
*865 net330
*866 net331
*867 net332
*868 net333
*869 net334
*870 net335
*871 net336
*872 net337
*873 net338
*874 net339
*875 net34
*876 net340
*877 net341
*878 net342
*879 net343
*880 net344
*881 net345
*882 net346
*883 net347
*884 net348
*885 net349
*886 net35
*887 net350
*888 net351
*889 net352
*890 net353
*891 net354
*892 net355
*893 net356
*894 net357
*895 net358
*896 net359
*897 net36
*898 net360
*899 net361
*900 net362
*901 net363
*902 net364
*903 net365
*904 net366
*905 net367
*906 net368
*907 net369
*908 net37
*909 net370
*910 net371
*911 net372
*912 net373
*913 net374
*914 net375
*915 net376
*916 net377
*917 net378
*918 net379
*919 net38
*920 net380
*921 net381
*922 net382
*923 net383
*924 net384
*925 net385
*926 net386
*927 net387
*928 net388
*929 net389
*930 net39
*931 net390
*932 net391
*933 net392
*934 net393
*935 net394
*936 net395
*937 net396
*938 net397
*939 net398
*940 net399
*941 net4
*942 net40
*943 net400
*944 net401
*945 net402
*946 net403
*947 net404
*948 net405
*949 net406
*950 net407
*951 net408
*952 net409
*953 net41
*954 net410
*955 net411
*956 net412
*957 net413
*958 net414
*959 net415
*960 net416
*961 net417
*962 net418
*963 net419
*964 net42
*965 net420
*966 net421
*967 net422
*968 net423
*969 net424
*970 net425
*971 net426
*972 net427
*973 net428
*974 net429
*975 net43
*976 net430
*977 net431
*978 net432
*979 net433
*980 net434
*981 net435
*982 net436
*983 net437
*984 net438
*985 net439
*986 net44
*987 net440
*988 net441
*989 net442
*990 net443
*991 net444
*992 net445
*993 net446
*994 net447
*995 net448
*996 net449
*997 net45
*998 net450
*999 net451
*1000 net452
*1001 net453
*1002 net454
*1003 net455
*1004 net456
*1005 net457
*1006 net458
*1007 net459
*1008 net46
*1009 net460
*1010 net461
*1011 net462
*1012 net463
*1013 net464
*1014 net465
*1015 net466
*1016 net467
*1017 net468
*1018 net469
*1019 net47
*1020 net470
*1021 net471
*1022 net472
*1023 net473
*1024 net474
*1025 net475
*1026 net476
*1027 net477
*1028 net478
*1029 net479
*1030 net48
*1031 net480
*1032 net481
*1033 net482
*1034 net483
*1035 net484
*1036 net485
*1037 net486
*1038 net487
*1039 net488
*1040 net489
*1041 net49
*1042 net490
*1043 net491
*1044 net492
*1045 net493
*1046 net494
*1047 net495
*1048 net496
*1049 net497
*1050 net498
*1051 net499
*1052 net5
*1053 net50
*1054 net500
*1055 net501
*1056 net502
*1057 net503
*1058 net504
*1059 net505
*1060 net506
*1061 net507
*1062 net508
*1063 net509
*1064 net51
*1065 net510
*1066 net511
*1067 net512
*1068 net513
*1069 net514
*1070 net515
*1071 net516
*1072 net517
*1073 net518
*1074 net519
*1075 net52
*1076 net520
*1077 net521
*1078 net522
*1079 net523
*1080 net524
*1081 net525
*1082 net526
*1083 net527
*1084 net528
*1085 net529
*1086 net53
*1087 net530
*1088 net531
*1089 net532
*1090 net533
*1091 net534
*1092 net535
*1093 net536
*1094 net537
*1095 net538
*1096 net539
*1097 net54
*1098 net540
*1099 net541
*1100 net542
*1101 net543
*1102 net544
*1103 net545
*1104 net546
*1105 net547
*1106 net548
*1107 net549
*1108 net55
*1109 net550
*1110 net551
*1111 net552
*1112 net553
*1113 net554
*1114 net555
*1115 net556
*1116 net557
*1117 net558
*1118 net559
*1119 net56
*1120 net560
*1121 net561
*1122 net562
*1123 net563
*1124 net564
*1125 net565
*1126 net566
*1127 net567
*1128 net568
*1129 net569
*1130 net57
*1131 net570
*1132 net571
*1133 net572
*1134 net573
*1135 net574
*1136 net575
*1137 net576
*1138 net577
*1139 net578
*1140 net579
*1141 net58
*1142 net580
*1143 net581
*1144 net582
*1145 net583
*1146 net584
*1147 net585
*1148 net586
*1149 net587
*1150 net588
*1151 net589
*1152 net59
*1153 net590
*1154 net591
*1155 net592
*1156 net593
*1157 net594
*1158 net595
*1159 net596
*1160 net597
*1161 net598
*1162 net599
*1163 net6
*1164 net60
*1165 net600
*1166 net601
*1167 net602
*1168 net603
*1169 net604
*1170 net605
*1171 net606
*1172 net607
*1173 net608
*1174 net609
*1175 net61
*1176 net610
*1177 net611
*1178 net612
*1179 net613
*1180 net614
*1181 net615
*1182 net616
*1183 net617
*1184 net618
*1185 net619
*1186 net62
*1187 net620
*1188 net621
*1189 net622
*1190 net623
*1191 net624
*1192 net625
*1193 net626
*1194 net627
*1195 net628
*1196 net629
*1197 net63
*1198 net630
*1199 net631
*1200 net632
*1201 net633
*1202 net634
*1203 net635
*1204 net636
*1205 net637
*1206 net638
*1207 net639
*1208 net64
*1209 net640
*1210 net641
*1211 net642
*1212 net643
*1213 net644
*1214 net645
*1215 net646
*1216 net647
*1217 net648
*1218 net649
*1219 net65
*1220 net650
*1221 net651
*1222 net652
*1223 net653
*1224 net654
*1225 net655
*1226 net656
*1227 net657
*1228 net658
*1229 net659
*1230 net66
*1231 net660
*1232 net661
*1233 net662
*1234 net663
*1235 net664
*1236 net665
*1237 net666
*1238 net667
*1239 net668
*1240 net669
*1241 net67
*1242 net670
*1243 net671
*1244 net672
*1245 net673
*1246 net674
*1247 net675
*1248 net676
*1249 net677
*1250 net678
*1251 net679
*1252 net68
*1253 net680
*1254 net681
*1255 net682
*1256 net683
*1257 net684
*1258 net685
*1259 net686
*1260 net687
*1261 net688
*1262 net689
*1263 net69
*1264 net690
*1265 net691
*1266 net692
*1267 net693
*1268 net694
*1269 net695
*1270 net696
*1271 net697
*1272 net698
*1273 net699
*1274 net7
*1275 net70
*1276 net700
*1277 net701
*1278 net702
*1279 net703
*1280 net704
*1281 net705
*1282 net706
*1283 net707
*1284 net708
*1285 net709
*1286 net71
*1287 net710
*1288 net711
*1289 net712
*1290 net713
*1291 net714
*1292 net715
*1293 net716
*1294 net717
*1295 net718
*1296 net719
*1297 net72
*1298 net720
*1299 net721
*1300 net722
*1301 net723
*1302 net724
*1303 net725
*1304 net726
*1305 net727
*1306 net728
*1307 net729
*1308 net73
*1309 net730
*1310 net731
*1311 net732
*1312 net733
*1313 net734
*1314 net735
*1315 net736
*1316 net737
*1317 net738
*1318 net739
*1319 net74
*1320 net740
*1321 net741
*1322 net742
*1323 net743
*1324 net744
*1325 net745
*1326 net746
*1327 net747
*1328 net748
*1329 net749
*1330 net75
*1331 net750
*1332 net751
*1333 net752
*1334 net753
*1335 net754
*1336 net755
*1337 net756
*1338 net757
*1339 net758
*1340 net759
*1341 net76
*1342 net760
*1343 net761
*1344 net762
*1345 net763
*1346 net764
*1347 net765
*1348 net766
*1349 net767
*1350 net768
*1351 net769
*1352 net77
*1353 net770
*1354 net771
*1355 net772
*1356 net773
*1357 net774
*1358 net775
*1359 net776
*1360 net777
*1361 net778
*1362 net779
*1363 net78
*1364 net780
*1365 net781
*1366 net782
*1367 net783
*1368 net784
*1369 net785
*1370 net786
*1371 net787
*1372 net788
*1373 net789
*1374 net79
*1375 net790
*1376 net791
*1377 net792
*1378 net793
*1379 net794
*1380 net795
*1381 net796
*1382 net797
*1383 net798
*1384 net799
*1385 net8
*1386 net80
*1387 net800
*1388 net801
*1389 net802
*1390 net803
*1391 net804
*1392 net805
*1393 net806
*1394 net807
*1395 net808
*1396 net809
*1397 net81
*1398 net810
*1399 net811
*1400 net812
*1401 net813
*1402 net814
*1403 net815
*1404 net816
*1405 net817
*1406 net818
*1407 net819
*1408 net82
*1409 net820
*1410 net821
*1411 net822
*1412 net823
*1413 net824
*1414 net825
*1415 net826
*1416 net827
*1417 net828
*1418 net829
*1419 net83
*1420 net830
*1421 net831
*1422 net832
*1423 net833
*1424 net834
*1425 net835
*1426 net836
*1427 net837
*1428 net838
*1429 net839
*1430 net84
*1431 net840
*1432 net841
*1433 net842
*1434 net843
*1435 net844
*1436 net845
*1437 net846
*1438 net847
*1439 net848
*1440 net849
*1441 net85
*1442 net850
*1443 net851
*1444 net852
*1445 net853
*1446 net854
*1447 net855
*1448 net856
*1449 net857
*1450 net858
*1451 net859
*1452 net86
*1453 net860
*1454 net861
*1455 net862
*1456 net863
*1457 net864
*1458 net865
*1459 net866
*1460 net867
*1461 net868
*1462 net869
*1463 net87
*1464 net870
*1465 net871
*1466 net872
*1467 net873
*1468 net874
*1469 net875
*1470 net876
*1471 net877
*1472 net878
*1473 net879
*1474 net88
*1475 net880
*1476 net881
*1477 net882
*1478 net883
*1479 net884
*1480 net885
*1481 net886
*1482 net887
*1483 net888
*1484 net889
*1485 net89
*1486 net890
*1487 net891
*1488 net892
*1489 net893
*1490 net894
*1491 net895
*1492 net896
*1493 net897
*1494 net898
*1495 net899
*1496 net9
*1497 net90
*1498 net900
*1499 net901
*1500 net902
*1501 net903
*1502 net904
*1503 net905
*1504 net906
*1505 net907
*1506 net908
*1507 net909
*1508 net91
*1509 net910
*1510 net911
*1511 net912
*1512 net913
*1513 net914
*1514 net915
*1515 net916
*1516 net917
*1517 net918
*1518 net919
*1519 net92
*1520 net920
*1521 net921
*1522 net922
*1523 net923
*1524 net924
*1525 net925
*1526 net926
*1527 net927
*1528 net928
*1529 net929
*1530 net93
*1531 net930
*1532 net931
*1533 net932
*1534 net933
*1535 net934
*1536 net935
*1537 net936
*1538 net937
*1539 net938
*1540 net939
*1541 net94
*1542 net940
*1543 net941
*1544 net942
*1545 net943
*1546 net944
*1547 net945
*1548 net946
*1549 net947
*1550 net948
*1551 net949
*1552 net95
*1553 net950
*1554 net951
*1555 net952
*1556 net953
*1557 net954
*1558 net955
*1559 net956
*1560 net957
*1561 net958
*1562 net959
*1563 net96
*1564 net960
*1565 net961
*1566 net962
*1567 net963
*1568 net964
*1569 net965
*1570 net966
*1571 net967
*1572 net968
*1573 net969
*1574 net97
*1575 net970
*1576 net971
*1577 net972
*1578 net973
*1579 net974
*1580 net975
*1581 net976
*1582 net977
*1583 net978
*1584 net979
*1585 net98
*1586 net980
*1587 net981
*1588 net982
*1589 net983
*1590 net984
*1591 net985
*1592 net986
*1593 net987
*1594 net988
*1595 net989
*1596 net99
*1597 net990
*1598 net991
*1599 net992
*1600 net993
*1601 net994
*1602 net995
*1603 net996
*1604 net997
*1605 net998
*1606 net999
*1607 ANTENNA_1
*1608 ANTENNA_2
*1609 ANTENNA_c100_A1
*1610 ANTENNA_c100_A3
*1611 ANTENNA_c100_S1
*1612 ANTENNA_c101_A2
*1613 ANTENNA_c101_S0
*1614 ANTENNA_c101_S1
*1615 ANTENNA_c102_A0
*1616 ANTENNA_c102_A1
*1617 ANTENNA_c102_A2
*1618 ANTENNA_c102_X
*1619 ANTENNA_c103_A0
*1620 ANTENNA_c103_A2
*1621 ANTENNA_c103_S0
*1622 ANTENNA_c103_X
*1623 ANTENNA_c104_A1
*1624 ANTENNA_c105_A1
*1625 ANTENNA_c105_A3
*1626 ANTENNA_c105_S0
*1627 ANTENNA_c105_S1
*1628 ANTENNA_c106_A1
*1629 ANTENNA_c106_A3
*1630 ANTENNA_c106_S0
*1631 ANTENNA_c106_S1
*1632 ANTENNA_c107_A0
*1633 ANTENNA_c107_A2
*1634 ANTENNA_c107_S0
*1635 ANTENNA_c107_X
*1636 ANTENNA_c108_A2
*1637 ANTENNA_c108_A3
*1638 ANTENNA_c108_S0
*1639 ANTENNA_c108_S1
*1640 ANTENNA_c109_A1
*1641 ANTENNA_c109_S1
*1642 ANTENNA_c109_X
*1643 ANTENNA_c110_A2
*1644 ANTENNA_c110_A3
*1645 ANTENNA_c111_A1
*1646 ANTENNA_c111_A2
*1647 ANTENNA_c111_A3
*1648 ANTENNA_c111_B1
*1649 ANTENNA_c113_A2
*1650 ANTENNA_c113_B1
*1651 ANTENNA_c114_A4
*1652 ANTENNA_c115_A1
*1653 ANTENNA_c115_A3
*1654 ANTENNA_c115_S1
*1655 ANTENNA_c116_A3
*1656 ANTENNA_c116_B1
*1657 ANTENNA_c117_A3
*1658 ANTENNA_c117_S1
*1659 ANTENNA_c118_A0
*1660 ANTENNA_c119_A3
*1661 ANTENNA_c119_A4
*1662 ANTENNA_c119_B1
*1663 ANTENNA_c120_A3
*1664 ANTENNA_c120_A4
*1665 ANTENNA_c120_B1
*1666 ANTENNA_c121_A3
*1667 ANTENNA_c122_A1
*1668 ANTENNA_c122_A2
*1669 ANTENNA_c124_A0
*1670 ANTENNA_c124_A3
*1671 ANTENNA_c124_S0
*1672 ANTENNA_c126_A2
*1673 ANTENNA_c129_B1
*1674 ANTENNA_c131_A3
*1675 ANTENNA_c132_A1
*1676 ANTENNA_c132_A2
*1677 ANTENNA_c132_A3
*1678 ANTENNA_c132_A4
*1679 ANTENNA_c132_B1
*1680 ANTENNA_c132_X
*1681 ANTENNA_c133_A1
*1682 ANTENNA_c133_A2
*1683 ANTENNA_c133_A3
*1684 ANTENNA_c133_A4
*1685 ANTENNA_c133_B1
*1686 ANTENNA_c133_X
*1687 ANTENNA_c134_A1
*1688 ANTENNA_c134_A2
*1689 ANTENNA_c134_A3
*1690 ANTENNA_c134_B1
*1691 ANTENNA_c134_X
*1692 ANTENNA_c135_A1
*1693 ANTENNA_c135_A2
*1694 ANTENNA_c135_A3
*1695 ANTENNA_c135_A4
*1696 ANTENNA_c135_B1
*1697 ANTENNA_c135_X
*1698 ANTENNA_c136_A1
*1699 ANTENNA_c136_A3
*1700 ANTENNA_c136_A4
*1701 ANTENNA_c136_B1
*1702 ANTENNA_c136_X
*1703 ANTENNA_c137_A1
*1704 ANTENNA_c137_A2
*1705 ANTENNA_c137_A3
*1706 ANTENNA_c137_B1
*1707 ANTENNA_c137_X
*1708 ANTENNA_c138_A1
*1709 ANTENNA_c138_A2
*1710 ANTENNA_c138_A3
*1711 ANTENNA_c138_A4
*1712 ANTENNA_c138_X
*1713 ANTENNA_c139_A2
*1714 ANTENNA_c139_A3
*1715 ANTENNA_c139_A4
*1716 ANTENNA_c139_B1
*1717 ANTENNA_c139_X
*1718 ANTENNA_c140_A1
*1719 ANTENNA_c140_A2
*1720 ANTENNA_c140_A3
*1721 ANTENNA_c140_B1
*1722 ANTENNA_c140_X
*1723 ANTENNA_c141_A1
*1724 ANTENNA_c141_A2
*1725 ANTENNA_c141_A3
*1726 ANTENNA_c141_A4
*1727 ANTENNA_c141_B1
*1728 ANTENNA_c142_A1
*1729 ANTENNA_c142_A2
*1730 ANTENNA_c142_S0
*1731 ANTENNA_c142_X
*1732 ANTENNA_c143_A2
*1733 ANTENNA_c143_A3
*1734 ANTENNA_c144_A2
*1735 ANTENNA_c144_S0
*1736 ANTENNA_c144_X
*1737 ANTENNA_c145_A1
*1738 ANTENNA_c145_A2
*1739 ANTENNA_c145_A3
*1740 ANTENNA_c145_S0
*1741 ANTENNA_c145_S1
*1742 ANTENNA_c146_A2
*1743 ANTENNA_c146_A3
*1744 ANTENNA_c146_A4
*1745 ANTENNA_c146_X
*1746 ANTENNA_c147_A0
*1747 ANTENNA_c147_A1
*1748 ANTENNA_c147_S0
*1749 ANTENNA_c148_A1
*1750 ANTENNA_c148_A3
*1751 ANTENNA_c148_X
*1752 ANTENNA_c149_A1
*1753 ANTENNA_c149_A4
*1754 ANTENNA_c149_X
*1755 ANTENNA_c150_A0
*1756 ANTENNA_c150_A1
*1757 ANTENNA_c150_A2
*1758 ANTENNA_c150_S1
*1759 ANTENNA_c151_A1
*1760 ANTENNA_c151_A2
*1761 ANTENNA_c151_A4
*1762 ANTENNA_c151_X
*1763 ANTENNA_c152_A0
*1764 ANTENNA_c152_A1
*1765 ANTENNA_c152_A2
*1766 ANTENNA_c152_S0
*1767 ANTENNA_c152_S1
*1768 ANTENNA_c153_A0
*1769 ANTENNA_c153_A1
*1770 ANTENNA_c153_A2
*1771 ANTENNA_c153_S0
*1772 ANTENNA_c153_S1
*1773 ANTENNA_c154_A1
*1774 ANTENNA_c154_A2
*1775 ANTENNA_c154_A3
*1776 ANTENNA_c154_A4
*1777 ANTENNA_c154_B1
*1778 ANTENNA_c155_A0
*1779 ANTENNA_c155_A3
*1780 ANTENNA_c155_S0
*1781 ANTENNA_c155_S1
*1782 ANTENNA_c155_X
*1783 ANTENNA_c156_A1
*1784 ANTENNA_c156_A2
*1785 ANTENNA_c156_A3
*1786 ANTENNA_c156_A4
*1787 ANTENNA_c156_B1
*1788 ANTENNA_c156_X
*1789 ANTENNA_c157_A0
*1790 ANTENNA_c157_A1
*1791 ANTENNA_c157_A2
*1792 ANTENNA_c157_A3
*1793 ANTENNA_c157_S0
*1794 ANTENNA_c157_S1
*1795 ANTENNA_c157_X
*1796 ANTENNA_c158_A3
*1797 ANTENNA_c158_A4
*1798 ANTENNA_c158_B1
*1799 ANTENNA_c159_A2
*1800 ANTENNA_c159_A3
*1801 ANTENNA_c159_A4
*1802 ANTENNA_c159_B1
*1803 ANTENNA_c159_X
*1804 ANTENNA_c160_A1
*1805 ANTENNA_c160_A2
*1806 ANTENNA_c160_A3
*1807 ANTENNA_c160_A4
*1808 ANTENNA_c160_B1
*1809 ANTENNA_c160_X
*1810 ANTENNA_c161_A1
*1811 ANTENNA_c161_A2
*1812 ANTENNA_c161_A4
*1813 ANTENNA_c161_B1
*1814 ANTENNA_c161_X
*1815 ANTENNA_c162_A1
*1816 ANTENNA_c162_A3
*1817 ANTENNA_c162_A4
*1818 ANTENNA_c162_X
*1819 ANTENNA_c163_A0
*1820 ANTENNA_c163_A1
*1821 ANTENNA_c163_A2
*1822 ANTENNA_c163_A3
*1823 ANTENNA_c163_S0
*1824 ANTENNA_c163_S1
*1825 ANTENNA_c163_X
*1826 ANTENNA_c164_A0
*1827 ANTENNA_c164_A1
*1828 ANTENNA_c164_A2
*1829 ANTENNA_c164_A3
*1830 ANTENNA_c164_S0
*1831 ANTENNA_c164_S1
*1832 ANTENNA_c164_X
*1833 ANTENNA_c165_A0
*1834 ANTENNA_c165_A1
*1835 ANTENNA_c165_A2
*1836 ANTENNA_c165_A3
*1837 ANTENNA_c165_S0
*1838 ANTENNA_c165_S1
*1839 ANTENNA_c165_X
*1840 ANTENNA_c166_A1
*1841 ANTENNA_c166_A2
*1842 ANTENNA_c166_A3
*1843 ANTENNA_c166_A4
*1844 ANTENNA_c166_B1
*1845 ANTENNA_c166_X
*1846 ANTENNA_c167_A1
*1847 ANTENNA_c167_A2
*1848 ANTENNA_c167_A3
*1849 ANTENNA_c167_A4
*1850 ANTENNA_c167_B1
*1851 ANTENNA_c168_A0
*1852 ANTENNA_c168_A1
*1853 ANTENNA_c168_A2
*1854 ANTENNA_c168_A3
*1855 ANTENNA_c168_S0
*1856 ANTENNA_c168_X
*1857 ANTENNA_c169_A0
*1858 ANTENNA_c169_A1
*1859 ANTENNA_c169_A2
*1860 ANTENNA_c169_S0
*1861 ANTENNA_c169_S1
*1862 ANTENNA_c170_A0
*1863 ANTENNA_c170_A2
*1864 ANTENNA_c170_A3
*1865 ANTENNA_c170_S0
*1866 ANTENNA_c170_X
*1867 ANTENNA_c171_A0
*1868 ANTENNA_c171_A1
*1869 ANTENNA_c171_A2
*1870 ANTENNA_c171_A3
*1871 ANTENNA_c171_S0
*1872 ANTENNA_c171_S1
*1873 ANTENNA_c171_X
*1874 ANTENNA_c172_A0
*1875 ANTENNA_c172_A1
*1876 ANTENNA_c172_A2
*1877 ANTENNA_c172_A3
*1878 ANTENNA_c172_S0
*1879 ANTENNA_c173_A0
*1880 ANTENNA_c173_A1
*1881 ANTENNA_c173_A2
*1882 ANTENNA_c173_A3
*1883 ANTENNA_c173_S0
*1884 ANTENNA_c174_A1
*1885 ANTENNA_c174_A2
*1886 ANTENNA_c174_A3
*1887 ANTENNA_c174_A4