*SPEF "ieee 1481-1999"
*DESIGN "netlist_0"
*DATE "14:39:13 Friday August 16, 2024"
*VENDOR "The OpenROAD Project"
*PROGRAM "OpenROAD"
*VERSION "d423155d69de7f683a23f6916ead418a615ad4ad"
*DESIGN_FLOW "NAME_SCOPE LOCAL" "PIN_CAP NONE"
*DIVIDER /
*DELIMITER :
*BUS_DELIMITER []
*T_UNIT 1 NS
*C_UNIT 1 PF
*R_UNIT 1 OHM
*L_UNIT 1 HENRY

*NAME_MAP
*3 clk
*4 in0
*5 in1
*6 in10
*7 in11
*8 in12
*9 in13
*10 in14
*11 in15
*12 in16
*13 in17
*14 in18
*15 in19
*16 in2
*17 in20
*18 in21
*19 in22
*20 in23
*21 in24
*22 in25
*23 in26
*24 in27
*25 in28
*26 in29
*27 in3
*28 in30
*29 in31
*30 in32
*31 in33
*32 in34
*33 in35
*34 in36
*35 in37
*36 in38
*37 in39
*38 in4
*39 in40
*40 in41
*41 in42
*42 in43
*43 in44
*44 in45
*45 in46
*46 in47
*47 in48
*48 in49
*49 in5
*50 in50
*51 in51
*52 in52
*53 in53
*54 in54
*55 in55
*56 in56
*57 in57
*58 in58
*59 in59
*60 in6
*61 in60
*62 in61
*63 in62
*64 in63
*65 in64
*66 in65
*67 in66
*68 in67
*69 in68
*70 in69
*71 in7
*72 in70
*73 in71
*74 in72
*75 in73
*76 in74
*77 in75
*78 in76
*79 in77
*80 in78
*81 in79
*82 in8
*83 in80
*84 in81
*85 in82
*86 in83
*87 in84
*88 in85
*89 in86
*90 in87
*91 in88
*92 in89
*93 in9
*94 in90
*95 in91
*96 in92
*97 in93
*98 in94
*99 in95
*100 in96
*101 in97
*102 in98
*103 in99
*104 out0
*105 out1
*106 out10
*107 out11
*108 out12
*109 out13
*110 out14
*111 out15
*112 out16
*113 out17
*114 out18
*115 out19
*116 out2
*117 out20
*118 out21
*119 out22
*120 out23
*121 out24
*122 out25
*123 out26
*124 out27
*125 out28
*126 out29
*127 out3
*128 out30
*129 out31
*130 out32
*131 out33
*132 out34
*133 out35
*134 out36
*135 out37
*136 out38
*137 out39
*138 out4
*139 out40
*140 out41
*141 out42
*142 out43
*143 out44
*144 out45
*145 out46
*146 out47
*147 out48
*148 out49
*149 out5
*150 out50
*151 out51
*152 out52
*153 out53
*154 out54
*155 out55
*156 out56
*157 out57
*158 out58
*159 out59
*160 out6
*161 out60
*162 out61
*163 out62
*164 out63
*165 out64
*166 out65
*167 out66
*168 out67
*169 out68
*170 out69
*171 out7
*172 out70
*173 out71
*174 out72
*175 out73
*176 out74
*177 out75
*178 out76
*179 out77
*180 out78
*181 out79
*182 out8
*183 out80
*184 out81
*185 out82
*186 out83
*187 out84
*188 out85
*189 out86
*190 out87
*191 out88
*192 out89
*193 out9
*194 out90
*195 out91
*196 out92
*197 out93
*198 out94
*199 out95
*200 out96
*201 out97
*202 out98
*203 out99
*204 rst
*205 clknet_0_clk
*206 clknet_0_net105
*207 clknet_0_net107
*208 clknet_0_net109
*209 clknet_0_net203
*210 clknet_0_net205
*211 clknet_0_net216
*212 clknet_0_net246
*213 clknet_0_net250
*214 clknet_0_net302
*215 clknet_0_net310
*216 clknet_0_net316
*217 clknet_0_net318
*218 clknet_0_net319
*219 clknet_0_net341
*220 clknet_0_net342
*221 clknet_0_net343
*222 clknet_0_net347
*223 clknet_0_net348
*224 clknet_0_net349
*225 clknet_0_net352
*226 clknet_0_net353
*227 clknet_0_net357
*228 clknet_0_net358
*229 clknet_0_net366
*230 clknet_0_net367
*231 clknet_0_net370
*232 clknet_0_net372
*233 clknet_0_net375
*234 clknet_0_net377
*235 clknet_0_net380
*236 clknet_0_net403
*237 clknet_0_net407
*238 clknet_0_net429
*239 clknet_0_net443
*240 clknet_0_net444
*241 clknet_0_net446
*242 clknet_0_net447
*243 clknet_0_net451
*244 clknet_0_net455
*245 clknet_0_net456
*246 clknet_0_net457
*247 clknet_0_net458
*248 clknet_0_net463
*249 clknet_0_net469
*250 clknet_0_net481
*251 clknet_0_net489
*252 clknet_0_net492
*253 clknet_0_net495
*254 clknet_0_net499
*255 clknet_0_net502
*256 clknet_0_net509
*257 clknet_0_net521
*258 clknet_0_net523
*259 clknet_0_net527
*260 clknet_0_net528
*261 clknet_0_net643
*262 clknet_0_net644
*263 clknet_0_net656
*264 clknet_0_net657
*265 clknet_0_net658
*266 clknet_0_net673
*267 clknet_0_net674
*268 clknet_0_net675
*269 clknet_0_net693
*270 clknet_0_net694
*271 clknet_0_net695
*272 clknet_0_net713
*273 clknet_0_net714
*274 clknet_0_net715
*275 clknet_0_net732
*276 clknet_0_net733
*277 clknet_0_net734
*278 clknet_0_net868
*279 clknet_0_net877
*280 clknet_0_net882
*281 clknet_0_net887
*282 clknet_0_net907
*283 clknet_0_net912
*284 clknet_0_net913
*285 clknet_0_net921
*286 clknet_1_0__leaf_net105
*287 clknet_1_0__leaf_net107
*288 clknet_1_0__leaf_net109
*289 clknet_1_0__leaf_net203
*290 clknet_1_0__leaf_net205
*291 clknet_1_0__leaf_net216
*292 clknet_1_0__leaf_net246
*293 clknet_1_0__leaf_net250
*294 clknet_1_0__leaf_net302
*295 clknet_1_0__leaf_net310
*296 clknet_1_0__leaf_net316
*297 clknet_1_0__leaf_net318
*298 clknet_1_0__leaf_net319
*299 clknet_1_0__leaf_net341
*300 clknet_1_0__leaf_net342
*301 clknet_1_0__leaf_net343
*302 clknet_1_0__leaf_net347
*303 clknet_1_0__leaf_net348
*304 clknet_1_0__leaf_net349
*305 clknet_1_0__leaf_net352
*306 clknet_1_0__leaf_net353
*307 clknet_1_0__leaf_net357
*308 clknet_1_0__leaf_net358
*309 clknet_1_0__leaf_net366
*310 clknet_1_0__leaf_net367
*311 clknet_1_0__leaf_net370
*312 clknet_1_0__leaf_net372
*313 clknet_1_0__leaf_net375
*314 clknet_1_0__leaf_net377
*315 clknet_1_0__leaf_net380
*316 clknet_1_0__leaf_net403
*317 clknet_1_0__leaf_net407
*318 clknet_1_0__leaf_net429
*319 clknet_1_0__leaf_net443
*320 clknet_1_0__leaf_net444
*321 clknet_1_0__leaf_net446
*322 clknet_1_0__leaf_net447
*323 clknet_1_0__leaf_net451
*324 clknet_1_0__leaf_net455
*325 clknet_1_0__leaf_net456
*326 clknet_1_0__leaf_net457
*327 clknet_1_0__leaf_net458
*328 clknet_1_0__leaf_net463
*329 clknet_1_0__leaf_net469
*330 clknet_1_0__leaf_net481
*331 clknet_1_0__leaf_net489
*332 clknet_1_0__leaf_net492
*333 clknet_1_0__leaf_net495
*334 clknet_1_0__leaf_net499
*335 clknet_1_0__leaf_net502
*336 clknet_1_0__leaf_net509
*337 clknet_1_0__leaf_net521
*338 clknet_1_0__leaf_net523
*339 clknet_1_0__leaf_net527
*340 clknet_1_0__leaf_net528
*341 clknet_1_0__leaf_net643
*342 clknet_1_0__leaf_net644
*343 clknet_1_0__leaf_net656
*344 clknet_1_0__leaf_net657
*345 clknet_1_0__leaf_net658
*346 clknet_1_0__leaf_net673
*347 clknet_1_0__leaf_net674
*348 clknet_1_0__leaf_net675
*349 clknet_1_0__leaf_net693
*350 clknet_1_0__leaf_net694
*351 clknet_1_0__leaf_net695
*352 clknet_1_0__leaf_net713
*353 clknet_1_0__leaf_net714
*354 clknet_1_0__leaf_net715
*355 clknet_1_0__leaf_net732
*356 clknet_1_0__leaf_net733
*357 clknet_1_0__leaf_net734
*358 clknet_1_0__leaf_net868
*359 clknet_1_0__leaf_net877
*360 clknet_1_0__leaf_net882
*361 clknet_1_0__leaf_net887
*362 clknet_1_0__leaf_net907
*363 clknet_1_0__leaf_net912
*364 clknet_1_0__leaf_net913
*365 clknet_1_0__leaf_net921
*366 clknet_1_1__leaf_net105
*367 clknet_1_1__leaf_net107
*368 clknet_1_1__leaf_net109
*369 clknet_1_1__leaf_net203
*370 clknet_1_1__leaf_net205
*371 clknet_1_1__leaf_net216
*372 clknet_1_1__leaf_net246
*373 clknet_1_1__leaf_net250
*374 clknet_1_1__leaf_net302
*375 clknet_1_1__leaf_net310
*376 clknet_1_1__leaf_net316
*377 clknet_1_1__leaf_net318
*378 clknet_1_1__leaf_net319
*379 clknet_1_1__leaf_net341
*380 clknet_1_1__leaf_net342
*381 clknet_1_1__leaf_net343
*382 clknet_1_1__leaf_net347
*383 clknet_1_1__leaf_net348
*384 clknet_1_1__leaf_net349
*385 clknet_1_1__leaf_net352
*386 clknet_1_1__leaf_net353
*387 clknet_1_1__leaf_net357
*388 clknet_1_1__leaf_net358
*389 clknet_1_1__leaf_net366
*390 clknet_1_1__leaf_net367
*391 clknet_1_1__leaf_net370
*392 clknet_1_1__leaf_net372
*393 clknet_1_1__leaf_net375
*394 clknet_1_1__leaf_net377
*395 clknet_1_1__leaf_net380
*396 clknet_1_1__leaf_net403
*397 clknet_1_1__leaf_net407
*398 clknet_1_1__leaf_net429
*399 clknet_1_1__leaf_net443
*400 clknet_1_1__leaf_net444
*401 clknet_1_1__leaf_net446
*402 clknet_1_1__leaf_net447
*403 clknet_1_1__leaf_net451
*404 clknet_1_1__leaf_net455
*405 clknet_1_1__leaf_net456
*406 clknet_1_1__leaf_net457
*407 clknet_1_1__leaf_net458
*408 clknet_1_1__leaf_net463
*409 clknet_1_1__leaf_net469
*410 clknet_1_1__leaf_net481
*411 clknet_1_1__leaf_net489
*412 clknet_1_1__leaf_net492
*413 clknet_1_1__leaf_net495
*414 clknet_1_1__leaf_net499
*415 clknet_1_1__leaf_net502
*416 clknet_1_1__leaf_net509
*417 clknet_1_1__leaf_net521
*418 clknet_1_1__leaf_net523
*419 clknet_1_1__leaf_net527
*420 clknet_1_1__leaf_net528
*421 clknet_1_1__leaf_net643
*422 clknet_1_1__leaf_net644
*423 clknet_1_1__leaf_net656
*424 clknet_1_1__leaf_net657
*425 clknet_1_1__leaf_net658
*426 clknet_1_1__leaf_net673
*427 clknet_1_1__leaf_net674
*428 clknet_1_1__leaf_net675
*429 clknet_1_1__leaf_net693
*430 clknet_1_1__leaf_net694
*431 clknet_1_1__leaf_net695
*432 clknet_1_1__leaf_net713
*433 clknet_1_1__leaf_net714
*434 clknet_1_1__leaf_net715
*435 clknet_1_1__leaf_net732
*436 clknet_1_1__leaf_net733
*437 clknet_1_1__leaf_net734
*438 clknet_1_1__leaf_net868
*439 clknet_1_1__leaf_net877
*440 clknet_1_1__leaf_net882
*441 clknet_1_1__leaf_net887
*442 clknet_1_1__leaf_net907
*443 clknet_1_1__leaf_net912
*444 clknet_1_1__leaf_net913
*445 clknet_1_1__leaf_net921
*446 clknet_4_0_0_clk
*447 clknet_4_10_0_clk
*448 clknet_4_11_0_clk
*449 clknet_4_12_0_clk
*450 clknet_4_13_0_clk
*451 clknet_4_14_0_clk
*452 clknet_4_15_0_clk
*453 clknet_4_1_0_clk
*454 clknet_4_2_0_clk
*455 clknet_4_3_0_clk
*456 clknet_4_4_0_clk
*457 clknet_4_5_0_clk
*458 clknet_4_6_0_clk
*459 clknet_4_7_0_clk
*460 clknet_4_8_0_clk
*461 clknet_4_9_0_clk
*462 net0
*463 net1
*464 net10
*465 net100
*466 net1000
*467 net1001
*468 net1002
*469 net1003
*470 net1004
*471 net1005
*472 net1006
*473 net1007
*474 net1008
*475 net1009
*476 net101
*477 net1010
*478 net1011
*479 net1012
*480 net1013
*481 net1014
*482 net1015
*483 net1016
*484 net1017
*485 net1018
*486 net1019
*487 net102
*488 net1020
*489 net1021
*490 net1022
*491 net1023
*492 net1024
*493 net1025
*494 net1026
*495 net1027
*496 net1028
*497 net1029
*498 net103
*499 net1030
*500 net1031
*501 net1032
*502 net1033
*503 net1034
*504 net1035
*505 net1036
*506 net1037
*507 net1038
*508 net1039
*509 net104
*510 net1040
*511 net1041
*512 net1042
*513 net1043
*514 net1044
*515 net1045
*516 net1046
*517 net1047
*518 net1048
*519 net1049
*520 net105
*521 net1050
*522 net1051
*523 net1052
*524 net1053
*525 net1054
*526 net1055
*527 net1056
*528 net1057
*529 net1058
*530 net1059
*531 net106
*532 net1060
*533 net1061
*534 net1062
*535 net1063
*536 net1064
*537 net1065
*538 net1066
*539 net1067
*540 net1068
*541 net1069
*542 net107
*543 net1070
*544 net1071
*545 net1072
*546 net1073
*547 net1074
*548 net1075
*549 net1076
*550 net1077
*551 net1078
*552 net1079
*553 net108
*554 net1080
*555 net1081
*556 net1082
*557 net1083
*558 net1084
*559 net1085
*560 net1086
*561 net1087
*562 net1088
*563 net1089
*564 net109
*565 net1090
*566 net1091
*567 net1092
*568 net1093
*569 net1094
*570 net1095
*571 net1096
*572 net1097
*573 net1098
*574 net1099
*575 net11
*576 net110
*577 net1100
*578 net1101
*579 net1102
*580 net1103
*581 net1104
*582 net1105
*583 net1106
*584 net1107
*585 net1108
*586 net1109
*587 net111
*588 net1110
*589 net1111
*590 net1112
*591 net1113
*592 net1114
*593 net1115
*594 net1116
*595 net1117
*596 net1118
*597 net1119
*598 net112
*599 net1120
*600 net1121
*601 net1122
*602 net1123
*603 net1124
*604 net1125
*605 net1126
*606 net1127
*607 net1128
*608 net1129
*609 net113
*610 net1130
*611 net1131
*612 net1132
*613 net1133
*614 net1134
*615 net1135
*616 net1136
*617 net1137
*618 net1138
*619 net1139
*620 net114
*621 net1140
*622 net1141
*623 net1142
*624 net1143
*625 net1144
*626 net1145
*627 net1146
*628 net1147
*629 net1148
*630 net1149
*631 net115
*632 net1150
*633 net1151
*634 net1152
*635 net1153
*636 net1154
*637 net1155
*638 net1156
*639 net1157
*640 net1158
*641 net1159
*642 net116
*643 net1160
*644 net1161
*645 net1162
*646 net1163
*647 net1164
*648 net1165
*649 net1166
*650 net1167
*651 net1168
*652 net1169
*653 net117
*654 net1170
*655 net1171
*656 net1172
*657 net1173
*658 net1174
*659 net1175
*660 net1176
*661 net118
*662 net119
*663 net12
*664 net120
*665 net121
*666 net122
*667 net123
*668 net124
*669 net125
*670 net126
*671 net127
*672 net128
*673 net129
*674 net13
*675 net130
*676 net131
*677 net132
*678 net133
*679 net134
*680 net135
*681 net136
*682 net137
*683 net138
*684 net139
*685 net14
*686 net140
*687 net141
*688 net142
*689 net143
*690 net144
*691 net145
*692 net146
*693 net147
*694 net148
*695 net149
*696 net15
*697 net150
*698 net151
*699 net152
*700 net153
*701 net154
*702 net155
*703 net156
*704 net157
*705 net158
*706 net159
*707 net16
*708 net160
*709 net161
*710 net162
*711 net163
*712 net164
*713 net165
*714 net166
*715 net167
*716 net168
*717 net169
*718 net17
*719 net170
*720 net171
*721 net172
*722 net173
*723 net174
*724 net175
*725 net176
*726 net177
*727 net178
*728 net179
*729 net18
*730 net180
*731 net181
*732 net182
*733 net183
*734 net184
*735 net185
*736 net186
*737 net187
*738 net188
*739 net189
*740 net19
*741 net190
*742 net191
*743 net192
*744 net193
*745 net194
*746 net195
*747 net196
*748 net197
*749 net198
*750 net199
*751 net2
*752 net20
*753 net200
*754 net201
*755 net202
*756 net203
*757 net204
*758 net205
*759 net206
*760 net207
*761 net208
*762 net209
*763 net21
*764 net210
*765 net211
*766 net212
*767 net213
*768 net214
*769 net215
*770 net216
*771 net217
*772 net218
*773 net219
*774 net22
*775 net220
*776 net221
*777 net222
*778 net223
*779 net224
*780 net225
*781 net226
*782 net227
*783 net228
*784 net229
*785 net23
*786 net230
*787 net231
*788 net232
*789 net233
*790 net234
*791 net235
*792 net236
*793 net237
*794 net238
*795 net239
*796 net24
*797 net240
*798 net241
*799 net242
*800 net243
*801 net244
*802 net245
*803 net246
*804 net247
*805 net248
*806 net249
*807 net25
*808 net250
*809 net251
*810 net252
*811 net253
*812 net254
*813 net255
*814 net256
*815 net257
*816 net258
*817 net259
*818 net26
*819 net260
*820 net261
*821 net262
*822 net263
*823 net264
*824 net265
*825 net266
*826 net267
*827 net268
*828 net269
*829 net27
*830 net270
*831 net271
*832 net272
*833 net273
*834 net274
*835 net275
*836 net276
*837 net277
*838 net278
*839 net279
*840 net28
*841 net280
*842 net281
*843 net282
*844 net283
*845 net284
*846 net285
*847 net286
*848 net287
*849 net288
*850 net289
*851 net29
*852 net290
*853 net291
*854 net292
*855 net293
*856 net294
*857 net295
*858 net296
*859 net297
*860 net298
*861 net299
*862 net3
*863 net30
*864 net300
*865 net301
*866 net302
*867 net303
*868 net304
*869 net305
*870 net306
*871 net307
*872 net308
*873 net309
*874 net31
*875 net310
*876 net311
*877 net312
*878 net313
*879 net314
*880 net315
*881 net316
*882 net317
*883 net318
*884 net319
*885 net32
*886 net320
*887 net321
*888 net322
*889 net323
*890 net324
*891 net325
*892 net326
*893 net327
*894 net328
*895 net329
*896 net33
*897 net330
*898 net331
*899 net332
*900 net333
*901 net334
*902 net335
*903 net336
*904 net337
*905 net338
*906 net339
*907 net34
*908 net340
*909 net341
*910 net342
*911 net343
*912 net344
*913 net345
*914 net346
*915 net347
*916 net348
*917 net349
*918 net35
*919 net350
*920 net351
*921 net352
*922 net353
*923 net354
*924 net355
*925 net356
*926 net357
*927 net358
*928 net359
*929 net36
*930 net360
*931 net361
*932 net362
*933 net363
*934 net364
*935 net365
*936 net366
*937 net367
*938 net368
*939 net369
*940 net37
*941 net370
*942 net371
*943 net372
*944 net373
*945 net374
*946 net375
*947 net376
*948 net377
*949 net378
*950 net379
*951 net38
*952 net380
*953 net381
*954 net382
*955 net383
*956 net384
*957 net385
*958 net386
*959 net387
*960 net388
*961 net389
*962 net39
*963 net390
*964 net391
*965 net392
*966 net393
*967 net394
*968 net395
*969 net396
*970 net397
*971 net398
*972 net399
*973 net4
*974 net40
*975 net400
*976 net401
*977 net402
*978 net403
*979 net404
*980 net405
*981 net406
*982 net407
*983 net408
*984 net409
*985 net41
*986 net410
*987 net411
*988 net412
*989 net413
*990 net414
*991 net415
*992 net416
*993 net417
*994 net418
*995 net419
*996 net42
*997 net420
*998 net421
*999 net422
*1000 net423
*1001 net424
*1002 net425
*1003 net426
*1004 net427
*1005 net428
*1006 net429
*1007 net43
*1008 net430
*1009 net431
*1010 net432
*1011 net433
*1012 net434
*1013 net435
*1014 net436
*1015 net437
*1016 net438
*1017 net439
*1018 net44
*1019 net440
*1020 net441
*1021 net442
*1022 net443
*1023 net444
*1024 net445
*1025 net446
*1026 net447
*1027 net448
*1028 net449
*1029 net45
*1030 net450
*1031 net451
*1032 net452
*1033 net453
*1034 net454
*1035 net455
*1036 net456
*1037 net457
*1038 net458
*1039 net459
*1040 net46
*1041 net460
*1042 net461
*1043 net462
*1044 net463
*1045 net464
*1046 net465
*1047 net466
*1048 net467
*1049 net468
*1050 net469
*1051 net47
*1052 net470
*1053 net471
*1054 net472
*1055 net473
*1056 net474
*1057 net475
*1058 net476
*1059 net477
*1060 net478
*1061 net479
*1062 net48
*1063 net480
*1064 net481
*1065 net482
*1066 net483
*1067 net484
*1068 net485
*1069 net486
*1070 net487
*1071 net488
*1072 net489
*1073 net49
*1074 net490
*1075 net491
*1076 net492
*1077 net493
*1078 net494
*1079 net495
*1080 net496
*1081 net497
*1082 net498
*1083 net499
*1084 net5
*1085 net50
*1086 net500
*1087 net501
*1088 net502
*1089 net503
*1090 net504
*1091 net505
*1092 net506
*1093 net507
*1094 net508
*1095 net509
*1096 net51
*1097 net510
*1098 net511
*1099 net512
*1100 net513
*1101 net514
*1102 net515
*1103 net516
*1104 net517
*1105 net518
*1106 net519
*1107 net52
*1108 net520
*1109 net521
*1110 net522
*1111 net523
*1112 net524
*1113 net525
*1114 net526
*1115 net527
*1116 net528
*1117 net529
*1118 net53
*1119 net530
*1120 net531
*1121 net532
*1122 net533
*1123 net534
*1124 net535
*1125 net536
*1126 net537
*1127 net538
*1128 net539
*1129 net54
*1130 net540
*1131 net541
*1132 net542
*1133 net543
*1134 net544
*1135 net545
*1136 net546
*1137 net547
*1138 net548
*1139 net549
*1140 net55
*1141 net550
*1142 net551
*1143 net552
*1144 net553
*1145 net554
*1146 net555
*1147 net556
*1148 net557
*1149 net558
*1150 net559
*1151 net56
*1152 net560
*1153 net561
*1154 net562
*1155 net563
*1156 net564
*1157 net565
*1158 net566
*1159 net567
*1160 net568
*1161 net569
*1162 net57
*1163 net570
*1164 net571
*1165 net572
*1166 net573
*1167 net574
*1168 net575
*1169 net576
*1170 net577
*1171 net578
*1172 net579
*1173 net58
*1174 net580
*1175 net581
*1176 net582
*1177 net583
*1178 net584
*1179 net585
*1180 net586
*1181 net587
*1182 net588
*1183 net589
*1184 net59
*1185 net590
*1186 net591
*1187 net592
*1188 net593
*1189 net594
*1190 net595
*1191 net596
*1192 net597
*1193 net598
*1194 net599
*1195 net6
*1196 net60
*1197 net600
*1198 net601
*1199 net602
*1200 net603
*1201 net604
*1202 net605
*1203 net606
*1204 net607
*1205 net608
*1206 net609
*1207 net61
*1208 net610
*1209 net611
*1210 net612
*1211 net613
*1212 net614
*1213 net615
*1214 net616
*1215 net617
*1216 net618
*1217 net619
*1218 net62
*1219 net620
*1220 net621
*1221 net622
*1222 net623
*1223 net624
*1224 net625
*1225 net626
*1226 net627
*1227 net628
*1228 net629
*1229 net63
*1230 net630
*1231 net631
*1232 net632
*1233 net633
*1234 net634
*1235 net635
*1236 net636
*1237 net637
*1238 net638
*1239 net639
*1240 net64
*1241 net640
*1242 net641
*1243 net642
*1244 net643
*1245 net644
*1246 net645
*1247 net646
*1248 net647
*1249 net648
*1250 net649
*1251 net65
*1252 net650
*1253 net651
*1254 net652
*1255 net653
*1256 net654
*1257 net655
*1258 net656
*1259 net657
*1260 net658
*1261 net659
*1262 net66
*1263 net660
*1264 net661
*1265 net662
*1266 net663
*1267 net664
*1268 net665
*1269 net666
*1270 net667
*1271 net668
*1272 net669
*1273 net67
*1274 net670
*1275 net671
*1276 net672
*1277 net673
*1278 net674
*1279 net675
*1280 net676
*1281 net677
*1282 net678
*1283 net679
*1284 net68
*1285 net680
*1286 net681
*1287 net682
*1288 net683
*1289 net684
*1290 net685
*1291 net686
*1292 net687
*1293 net688
*1294 net689
*1295 net69
*1296 net690
*1297 net691
*1298 net692
*1299 net693
*1300 net694
*1301 net695
*1302 net696
*1303 net697
*1304 net698
*1305 net699
*1306 net7
*1307 net70
*1308 net700
*1309 net701
*1310 net702
*1311 net703
*1312 net704
*1313 net705
*1314 net706
*1315 net707
*1316 net708
*1317 net709
*1318 net71
*1319 net710
*1320 net711
*1321 net712
*1322 net713
*1323 net714
*1324 net715
*1325 net716
*1326 net717
*1327 net718
*1328 net719
*1329 net72
*1330 net720
*1331 net721
*1332 net722
*1333 net723
*1334 net724
*1335 net725
*1336 net726
*1337 net727
*1338 net728
*1339 net729
*1340 net73
*1341 net730
*1342 net731
*1343 net732
*1344 net733
*1345 net734
*1346 net735
*1347 net736
*1348 net737
*1349 net738
*1350 net739
*1351 net74
*1352 net740
*1353 net741
*1354 net742
*1355 net743
*1356 net744
*1357 net745
*1358 net746
*1359 net747
*1360 net748
*1361 net749
*1362 net75
*1363 net750
*1364 net751
*1365 net752
*1366 net753
*1367 net754
*1368 net755
*1369 net756
*1370 net757
*1371 net758
*1372 net759
*1373 net76
*1374 net760
*1375 net761
*1376 net762
*1377 net763
*1378 net764
*1379 net765
*1380 net766
*1381 net767
*1382 net768
*1383 net769
*1384 net77
*1385 net770
*1386 net771
*1387 net772
*1388 net773
*1389 net774
*1390 net775
*1391 net776
*1392 net777
*1393 net778
*1394 net779
*1395 net78
*1396 net780
*1397 net781
*1398 net782
*1399 net783
*1400 net784
*1401 net785
*1402 net786
*1403 net787
*1404 net788
*1405 net789
*1406 net79
*1407 net790
*1408 net791
*1409 net792
*1410 net793
*1411 net794
*1412 net795
*1413 net796
*1414 net797
*1415 net798
*1416 net799
*1417 net8
*1418 net80
*1419 net800
*1420 net801
*1421 net802
*1422 net803
*1423 net804
*1424 net805
*1425 net806
*1426 net807
*1427 net808
*1428 net809
*1429 net81
*1430 net810
*1431 net811
*1432 net812
*1433 net813
*1434 net814
*1435 net815
*1436 net816
*1437 net817
*1438 net818
*1439 net819
*1440 net82
*1441 net820
*1442 net821
*1443 net822
*1444 net823
*1445 net824
*1446 net825
*1447 net826
*1448 net827
*1449 net828
*1450 net829
*1451 net83
*1452 net830
*1453 net831
*1454 net832
*1455 net833
*1456 net834
*1457 net835
*1458 net836
*1459 net837
*1460 net838
*1461 net839
*1462 net84
*1463 net840
*1464 net841
*1465 net842
*1466 net843
*1467 net844
*1468 net845
*1469 net846
*1470 net847
*1471 net848
*1472 net849
*1473 net85
*1474 net850
*1475 net851
*1476 net852
*1477 net853
*1478 net854
*1479 net855
*1480 net856
*1481 net857
*1482 net858
*1483 net859
*1484 net86
*1485 net860
*1486 net861
*1487 net862
*1488 net863
*1489 net864
*1490 net865
*1491 net866
*1492 net867
*1493 net868
*1494 net869
*1495 net87
*1496 net870
*1497 net871
*1498 net872
*1499 net873
*1500 net874
*1501 net875
*1502 net876
*1503 net877
*1504 net878
*1505 net879
*1506 net88
*1507 net880
*1508 net881
*1509 net882
*1510 net883
*1511 net884
*1512 net885
*1513 net886
*1514 net887
*1515 net888
*1516 net889
*1517 net89
*1518 net890
*1519 net891
*1520 net892
*1521 net893
*1522 net894
*1523 net895
*1524 net896
*1525 net897
*1526 net898
*1527 net899
*1528 net9
*1529 net90
*1530 net900
*1531 net901
*1532 net902
*1533 net903
*1534 net904
*1535 net905
*1536 net906
*1537 net907
*1538 net908
*1539 net909
*1540 net91
*1541 net910
*1542 net911
*1543 net912
*1544 net913
*1545 net914
*1546 net915
*1547 net916
*1548 net917
*1549 net918
*1550 net919
*1551 net92
*1552 net920
*1553 net921
*1554 net922
*1555 net923
*1556 net924
*1557 net925
*1558 net926
*1559 net927
*1560 net928
*1561 net929
*1562 net93
*1563 net930
*1564 net931
*1565 net932
*1566 net933
*1567 net934
*1568 net935
*1569 net936
*1570 net937
*1571 net938
*1572 net939
*1573 net94
*1574 net940
*1575 net941
*1576 net942
*1577 net943
*1578 net944
*1579 net945
*1580 net946
*1581 net947
*1582 net948
*1583 net949
*1584 net95
*1585 net950
*1586 net951
*1587 net952
*1588 net953
*1589 net954
*1590 net955
*1591 net956
*1592 net957
*1593 net958
*1594 net959
*1595 net96
*1596 net960
*1597 net961
*1598 net962
*1599 net963
*1600 net964
*1601 net965
*1602 net966
*1603 net967
*1604 net968
*1605 net969
*1606 net97
*1607 net970
*1608 net971
*1609 net972
*1610 net973
*1611 net974
*1612 net975
*1613 net976
*1614 net977
*1615 net978
*1616 net979
*1617 net98
*1618 net980
*1619 net981
*1620 net982
*1621 net983
*1622 net984
*1623 net985
*1624 net986
*1625 net987
*1626 net988
*1627 net989
*1628 net99
*1629 net990
*1630 net991
*1631 net992
*1632 net993
*1633 net994
*1634 net995
*1635 net996
*1636 net997
*1637 net998
*1638 net999
*1639 ANTENNA_1
*1640 ANTENNA_2
*1641 ANTENNA_3
*1642 ANTENNA_4
*1643 ANTENNA_5
*1644 ANTENNA_6
*1645 ANTENNA_c100_A1
*1646 ANTENNA_c100_A3
*1647 ANTENNA_c100_S1
*1648 ANTENNA_c101_A2
*1649 ANTENNA_c101_S0
*1650 ANTENNA_c101_S1
*1651 ANTENNA_c102_A0
*1652 ANTENNA_c102_A1
*1653 ANTENNA_c102_A2
*1654 ANTENNA_c102_X
*1655 ANTENNA_c103_A0
*1656 ANTENNA_c103_A2
*1657 ANTENNA_c103_S0
*1658 ANTENNA_c103_X
*1659 ANTENNA_c104_A1
*1660 ANTENNA_c104_S0
*1661 ANTENNA_c105_A1
*1662 ANTENNA_c105_A3
*1663 ANTENNA_c105_S0
*1664 ANTENNA_c105_S1
*1665 ANTENNA_c105_X
*1666 ANTENNA_c106_A1
*1667 ANTENNA_c106_A2
*1668 ANTENNA_c106_A3
*1669 ANTENNA_c106_S0
*1670 ANTENNA_c106_S1
*1671 ANTENNA_c107_A0
*1672 ANTENNA_c107_A2
*1673 ANTENNA_c107_S0
*1674 ANTENNA_c107_X
*1675 ANTENNA_c108_A1
*1676 ANTENNA_c108_A3
*1677 ANTENNA_c108_S0
*1678 ANTENNA_c108_S1
*1679 ANTENNA_c109_A1
*1680 ANTENNA_c109_A3
*1681 ANTENNA_c109_S1
*1682 ANTENNA_c109_X
*1683 ANTENNA_c110_A2
*1684 ANTENNA_c110_A3
*1685 ANTENNA_c110_S1
*1686 ANTENNA_c111_A1
*1687 ANTENNA_c111_A2
*1688 ANTENNA_c111_B1
*1689 ANTENNA_c111_D1
*1690 ANTENNA_c112_D1
*1691 ANTENNA_c113_A2
*1692 ANTENNA_c113_D1
*1693 ANTENNA_c114_C1
*1694 ANTENNA_c115_A1
*1695 ANTENNA_c115_A3
*1696 ANTENNA_c115_S0
*1697 ANTENNA_c115_S1
*1698 ANTENNA_c116_B1
*1699 ANTENNA_c116_D1
*1700 ANTENNA_c117_A3
*1701 ANTENNA_c117_S1
*1702 ANTENNA_c118_A0
*1703 ANTENNA_c118_S0
*1704 ANTENNA_c119_A1
*1705 ANTENNA_c119_B1
*1706 ANTENNA_c119_C1
*1707 ANTENNA_c119_D1
*1708 ANTENNA_c120_B1
*1709 ANTENNA_c120_C1
*1710 ANTENNA_c120_D1
*1711 ANTENNA_c121_B1
*1712 ANTENNA_c122_A1
*1713 ANTENNA_c122_A2
*1714 ANTENNA_c122_D1
*1715 ANTENNA_c124_A0
*1716 ANTENNA_c124_A3
*1717 ANTENNA_c124_S0
*1718 ANTENNA_c124_S1
*1719 ANTENNA_c126_A2
*1720 ANTENNA_c129_D1
*1721 ANTENNA_c131_A3
*1722 ANTENNA_c132_A1
*1723 ANTENNA_c132_A2
*1724 ANTENNA_c132_B1
*1725 ANTENNA_c132_C1
*1726 ANTENNA_c132_D1
*1727 ANTENNA_c132_X
*1728 ANTENNA_c133_A1
*1729 ANTENNA_c133_A2
*1730 ANTENNA_c133_B1
*1731 ANTENNA_c133_C1
*1732 ANTENNA_c133_D1
*1733 ANTENNA_c134_A
*1734 ANTENNA_c134_B
*1735 ANTENNA_c134_C_N
*1736 ANTENNA_c134_D_N
*1737 ANTENNA_c134_X
*1738 ANTENNA_c135_A1
*1739 ANTENNA_c135_A2
*1740 ANTENNA_c135_B1
*1741 ANTENNA_c135_C1
*1742 ANTENNA_c135_D1
*1743 ANTENNA_c136_A1
*1744 ANTENNA_c136_B1
*1745 ANTENNA_c136_C1
*1746 ANTENNA_c136_D1
*1747 ANTENNA_c137_A
*1748 ANTENNA_c137_B
*1749 ANTENNA_c137_C_N
*1750 ANTENNA_c137_D_N
*1751 ANTENNA_c137_X
*1752 ANTENNA_c138_A1
*1753 ANTENNA_c138_A2
*1754 ANTENNA_c138_B1
*1755 ANTENNA_c138_C1
*1756 ANTENNA_c138_X
*1757 ANTENNA_c139_A1
*1758 ANTENNA_c139_B1
*1759 ANTENNA_c139_D1
*1760 ANTENNA_c139_X
*1761 ANTENNA_c140_A1
*1762 ANTENNA_c140_A2
*1763 ANTENNA_c140_C1
*1764 ANTENNA_c140_D1
*1765 ANTENNA_c140_X
*1766 ANTENNA_c141_A1
*1767 ANTENNA_c141_A2
*1768 ANTENNA_c141_B1
*1769 ANTENNA_c141_D1
*1770 ANTENNA_c142_A1
*1771 ANTENNA_c142_A2
*1772 ANTENNA_c142_A3
*1773 ANTENNA_c142_X
*1774 ANTENNA_c143_A2
*1775 ANTENNA_c143_C1
*1776 ANTENNA_c144_A2
*1777 ANTENNA_c144_A3
*1778 ANTENNA_c144_S0
*1779 ANTENNA_c145_A0
*1780 ANTENNA_c145_A1
*1781 ANTENNA_c145_A3
*1782 ANTENNA_c145_S0
*1783 ANTENNA_c145_S1
*1784 ANTENNA_c146_B1
*1785 ANTENNA_c146_X
*1786 ANTENNA_c147_A1
*1787 ANTENNA_c147_A3
*1788 ANTENNA_c147_S0
*1789 ANTENNA_c147_X
*1790 ANTENNA_c148_A1
*1791 ANTENNA_c148_X
*1792 ANTENNA_c149_A1
*1793 ANTENNA_c149_D1
*1794 ANTENNA_c149_X
*1795 ANTENNA_c150_A0
*1796 ANTENNA_c150_A1
*1797 ANTENNA_c150_A2
*1798 ANTENNA_c150_A3
*1799 ANTENNA_c150_S1
*1800 ANTENNA_c150_X
*1801 ANTENNA_c151_A1
*1802 ANTENNA_c151_A2
*1803 ANTENNA_c151_D1
*1804 ANTENNA_c151_X
*1805 ANTENNA_c152_A0
*1806 ANTENNA_c152_A1
*1807 ANTENNA_c152_A2
*1808 ANTENNA_c152_S1
*1809 ANTENNA_c153_A0
*1810 ANTENNA_c153_A2
*1811 ANTENNA_c153_S1
*1812 ANTENNA_c154_A1
*1813 ANTENNA_c154_A2
*1814 ANTENNA_c154_B1
*1815 ANTENNA_c154_C1
*1816 ANTENNA_c154_D1
*1817 ANTENNA_c155_A0
*1818 ANTENNA_c155_A2
*1819 ANTENNA_c155_A3
*1820 ANTENNA_c155_S0
*1821 ANTENNA_c155_S1
*1822 ANTENNA_c155_X
*1823 ANTENNA_c156_A2
*1824 ANTENNA_c156_B1
*1825 ANTENNA_c156_C1
*1826 ANTENNA_c156_D1
*1827 ANTENNA_c156_X
*1828 ANTENNA_c157_A0
*1829 ANTENNA_c157_A1
*1830 ANTENNA_c157_A2
*1831 ANTENNA_c157_A3
*1832 ANTENNA_c157_S0
*1833 ANTENNA_c157_S1
*1834 ANTENNA_c157_X
*1835 ANTENNA_c158_B1
*1836 ANTENNA_c158_C1
*1837 ANTENNA_c158_D1
*1838 ANTENNA_c159_A1
*1839 ANTENNA_c159_A2
*1840 ANTENNA_c159_B1
*1841 ANTENNA_c159_C1
*1842 ANTENNA_c159_D1
*1843 ANTENNA_c159_X
*1844 ANTENNA_c160_A1
*1845 ANTENNA_c160_A2
*1846 ANTENNA_c160_B1
*1847 ANTENNA_c160_C1
*1848 ANTENNA_c160_D1
*1849 ANTENNA_c160_X
*1850 ANTENNA_c161_A1
*1851 ANTENNA_c161_A2
*1852 ANTENNA_c161_C1
*1853 ANTENNA_c161_D1
*1854 ANTENNA_c161_X
*1855 ANTENNA_c162_A1
*1856 ANTENNA_c162_A2
*1857 ANTENNA_c162_B1
*1858 ANTENNA_c162_C1
*1859 ANTENNA_c162_X
*1860 ANTENNA_c163_A0
*1861 ANTENNA_c163_A1
*1862 ANTENNA_c163_A2
*1863 ANTENNA_c163_A3
*1864 ANTENNA_c163_S0
*1865 ANTENNA_c163_S1
*1866 ANTENNA_c164_A0
*1867 ANTENNA_c164_A1
*1868 ANTENNA_c164_A2
*1869 ANTENNA_c164_A3
*1870 ANTENNA_c164_S0
*1871 ANTENNA_c164_S1
*1872 ANTENNA_c164_X
*1873 ANTENNA_c165_A0
*1874 ANTENNA_c165_A1
*1875 ANTENNA_c165_A2
*1876 ANTENNA_c165_A3
*1877 ANTENNA_c165_S0
*1878 ANTENNA_c165_S1
*1879 ANTENNA_c166_A1
*1880 ANTENNA_c166_B1
*1881 ANTENNA_c166_C1
*1882 ANTENNA_c166_D1
*1883 ANTENNA_c166_X
*1884 ANTENNA_c167_A1
*1885 ANTENNA_c167_A2
*1886 ANTENNA_c167_B1
*1887 ANTENNA_c167_C1
*1888 ANTENNA_c167_D1
*1889 ANTENNA_c168_A0
*1890 ANTENNA_c168_A1
*1891 ANTENNA_c168_A2
*1892 ANTENNA_c168_A3
*1893 ANTENNA_c168_S0
*1894 ANTENNA_c169_A0
*1895 ANTENNA_c169_A2
*1896 ANTENNA_c169_S0
*1897 ANTENNA_c169_S1
*1898 ANTENNA_c169_X
*1899 ANTENNA_c170_A1
*1900 ANTENNA_c170_A2
*1901 ANTENNA_c170_A3
*1902 ANTENNA_c170_S0
*1903 ANTENNA_c170_S1
*1904 ANTENNA_c171_A0
*1905 ANTENNA_c171_A1
*1906 ANTENNA_c171_A2
*1907 ANTENNA_c171_S0
*1908 ANTENNA_c171_S1
*1909 ANTENNA_c172_A0
*1910 ANTENNA_c172_A2
*1911 ANTENNA_c172_A3
*1912 ANTENNA_c173_A0
*1913 ANTENNA_c173_A1
*1914 ANTENNA_c173_A3
*1915 ANTENNA_c173_S0
*1916 ANTENNA_c174_A3
*1917 ANTENNA_c174_S1
*1918 ANTENNA_c175_A1
*1919 ANTENNA_c175_A2