*SPEF "ieee 1481-1999"
*DESIGN "netlist_0"
*DATE "20:03:27 Thursday August 15, 2024"
*VENDOR "The OpenROAD Project"
*PROGRAM "OpenROAD"
*VERSION "d423155d69de7f683a23f6916ead418a615ad4ad"
*DESIGN_FLOW "NAME_SCOPE LOCAL" "PIN_CAP NONE"
*DIVIDER /
*DELIMITER :
*BUS_DELIMITER []
*T_UNIT 1 NS
*C_UNIT 1 PF
*R_UNIT 1 OHM
*L_UNIT 1 HENRY

*NAME_MAP
*3 clk
*4 in0
*5 in1
*6 in10
*7 in11
*8 in12
*9 in13
*10 in14
*11 in15
*12 in16
*13 in17
*14 in18
*15 in19
*16 in2
*17 in20
*18 in21
*19 in22
*20 in23
*21 in24
*22 in25
*23 in26
*24 in27
*25 in28
*26 in29
*27 in3
*28 in30
*29 in31
*30 in32
*31 in33
*32 in34
*33 in35
*34 in36
*35 in37
*36 in38
*37 in39
*38 in4
*39 in40
*40 in41
*41 in42
*42 in43
*43 in44
*44 in45
*45 in46
*46 in47
*47 in48
*48 in49
*49 in5
*50 in50
*51 in51
*52 in52
*53 in53
*54 in54
*55 in55
*56 in56
*57 in57
*58 in58
*59 in59
*60 in6
*61 in60
*62 in61
*63 in62
*64 in63
*65 in64
*66 in65
*67 in66
*68 in67
*69 in68
*70 in69
*71 in7
*72 in70
*73 in71
*74 in72
*75 in73
*76 in74
*77 in75
*78 in76
*79 in77
*80 in78
*81 in79
*82 in8
*83 in80
*84 in81
*85 in82
*86 in83
*87 in84
*88 in85
*89 in86
*90 in87
*91 in88
*92 in89
*93 in9
*94 in90
*95 in91
*96 in92
*97 in93
*98 in94
*99 in95
*100 in96
*101 in97
*102 in98
*103 in99
*104 out0
*105 out1
*106 out10
*107 out11
*108 out12
*109 out13
*110 out14
*111 out15
*112 out16
*113 out17
*114 out18
*115 out19
*116 out2
*117 out20
*118 out21
*119 out22
*120 out23
*121 out24
*122 out25
*123 out26
*124 out27
*125 out28
*126 out29
*127 out3
*128 out30
*129 out31
*130 out32
*131 out33
*132 out34
*133 out35
*134 out36
*135 out37
*136 out38
*137 out39
*138 out4
*139 out40
*140 out41
*141 out42
*142 out43
*143 out44
*144 out45
*145 out46
*146 out47
*147 out48
*148 out49
*149 out5
*150 out50
*151 out51
*152 out52
*153 out53
*154 out54
*155 out55
*156 out56
*157 out57
*158 out58
*159 out59
*160 out6
*161 out60
*162 out61
*163 out62
*164 out63
*165 out64
*166 out65
*167 out66
*168 out67
*169 out68
*170 out69
*171 out7
*172 out70
*173 out71
*174 out72
*175 out73
*176 out74
*177 out75
*178 out76
*179 out77
*180 out78
*181 out79
*182 out8
*183 out80
*184 out81
*185 out82
*186 out83
*187 out84
*188 out85
*189 out86
*190 out87
*191 out88
*192 out89
*193 out9
*194 out90
*195 out91
*196 out92
*197 out93
*198 out94
*199 out95
*200 out96
*201 out97
*202 out98
*203 out99
*204 rst
*205 clknet_0_clk
*206 clknet_0_net100
*207 clknet_0_net183
*208 clknet_0_net185
*209 clknet_0_net187
*210 clknet_0_net202
*211 clknet_0_net210
*212 clknet_0_net224
*213 clknet_0_net259
*214 clknet_0_net262
*215 clknet_0_net265
*216 clknet_0_net275
*217 clknet_0_net277
*218 clknet_0_net278
*219 clknet_0_net287
*220 clknet_0_net293
*221 clknet_0_net300
*222 clknet_0_net303
*223 clknet_0_net304
*224 clknet_0_net306
*225 clknet_0_net307
*226 clknet_0_net311
*227 clknet_0_net314
*228 clknet_0_net316
*229 clknet_0_net325
*230 clknet_0_net330
*231 clknet_0_net335
*232 clknet_0_net338
*233 clknet_0_net339
*234 clknet_0_net361
*235 clknet_0_net363
*236 clknet_0_net364
*237 clknet_0_net365
*238 clknet_0_net368
*239 clknet_0_net376
*240 clknet_0_net382
*241 clknet_0_net383
*242 clknet_0_net384
*243 clknet_0_net396
*244 clknet_0_net398
*245 clknet_0_net416
*246 clknet_0_net422
*247 clknet_0_net423
*248 clknet_0_net424
*249 clknet_0_net427
*250 clknet_0_net436
*251 clknet_0_net466
*252 clknet_0_net478
*253 clknet_0_net484
*254 clknet_0_net489
*255 clknet_0_net496
*256 clknet_0_net499
*257 clknet_0_net506
*258 clknet_0_net525
*259 clknet_0_net526
*260 clknet_0_net527
*261 clknet_0_net529
*262 clknet_0_net532
*263 clknet_0_net547
*264 clknet_0_net649
*265 clknet_0_net650
*266 clknet_0_net671
*267 clknet_0_net672
*268 clknet_0_net673
*269 clknet_0_net689
*270 clknet_0_net690
*271 clknet_0_net691
*272 clknet_0_net708
*273 clknet_0_net709
*274 clknet_0_net726
*275 clknet_0_net727
*276 clknet_0_net728
*277 clknet_0_net746
*278 clknet_0_net764
*279 clknet_0_net868
*280 clknet_0_net875
*281 clknet_0_net878
*282 clknet_0_net879
*283 clknet_0_net88
*284 clknet_0_net880
*285 clknet_0_net887
*286 clknet_0_net891
*287 clknet_0_net892
*288 clknet_0_net894
*289 clknet_0_net907
*290 clknet_0_net909
*291 clknet_0_net910
*292 clknet_0_net911
*293 clknet_0_net912
*294 clknet_0_net922
*295 clknet_0_net925
*296 clknet_0_net94
*297 clknet_1_0__leaf_net100
*298 clknet_1_0__leaf_net183
*299 clknet_1_0__leaf_net185
*300 clknet_1_0__leaf_net187
*301 clknet_1_0__leaf_net202
*302 clknet_1_0__leaf_net210
*303 clknet_1_0__leaf_net224
*304 clknet_1_0__leaf_net259
*305 clknet_1_0__leaf_net262
*306 clknet_1_0__leaf_net265
*307 clknet_1_0__leaf_net275
*308 clknet_1_0__leaf_net277
*309 clknet_1_0__leaf_net278
*310 clknet_1_0__leaf_net287
*311 clknet_1_0__leaf_net293
*312 clknet_1_0__leaf_net300
*313 clknet_1_0__leaf_net303
*314 clknet_1_0__leaf_net304
*315 clknet_1_0__leaf_net306
*316 clknet_1_0__leaf_net307
*317 clknet_1_0__leaf_net311
*318 clknet_1_0__leaf_net314
*319 clknet_1_0__leaf_net316
*320 clknet_1_0__leaf_net325
*321 clknet_1_0__leaf_net330
*322 clknet_1_0__leaf_net335
*323 clknet_1_0__leaf_net338
*324 clknet_1_0__leaf_net339
*325 clknet_1_0__leaf_net361
*326 clknet_1_0__leaf_net363
*327 clknet_1_0__leaf_net364
*328 clknet_1_0__leaf_net365
*329 clknet_1_0__leaf_net368
*330 clknet_1_0__leaf_net376
*331 clknet_1_0__leaf_net382
*332 clknet_1_0__leaf_net383
*333 clknet_1_0__leaf_net384
*334 clknet_1_0__leaf_net396
*335 clknet_1_0__leaf_net398
*336 clknet_1_0__leaf_net416
*337 clknet_1_0__leaf_net422
*338 clknet_1_0__leaf_net423
*339 clknet_1_0__leaf_net424
*340 clknet_1_0__leaf_net427
*341 clknet_1_0__leaf_net436
*342 clknet_1_0__leaf_net466
*343 clknet_1_0__leaf_net478
*344 clknet_1_0__leaf_net484
*345 clknet_1_0__leaf_net489
*346 clknet_1_0__leaf_net496
*347 clknet_1_0__leaf_net499
*348 clknet_1_0__leaf_net506
*349 clknet_1_0__leaf_net525
*350 clknet_1_0__leaf_net526
*351 clknet_1_0__leaf_net527
*352 clknet_1_0__leaf_net529
*353 clknet_1_0__leaf_net532
*354 clknet_1_0__leaf_net547
*355 clknet_1_0__leaf_net649
*356 clknet_1_0__leaf_net650
*357 clknet_1_0__leaf_net671
*358 clknet_1_0__leaf_net672
*359 clknet_1_0__leaf_net673
*360 clknet_1_0__leaf_net689
*361 clknet_1_0__leaf_net690
*362 clknet_1_0__leaf_net691
*363 clknet_1_0__leaf_net708
*364 clknet_1_0__leaf_net709
*365 clknet_1_0__leaf_net726
*366 clknet_1_0__leaf_net727
*367 clknet_1_0__leaf_net728
*368 clknet_1_0__leaf_net746
*369 clknet_1_0__leaf_net764
*370 clknet_1_0__leaf_net868
*371 clknet_1_0__leaf_net875
*372 clknet_1_0__leaf_net878
*373 clknet_1_0__leaf_net879
*374 clknet_1_0__leaf_net88
*375 clknet_1_0__leaf_net880
*376 clknet_1_0__leaf_net887
*377 clknet_1_0__leaf_net891
*378 clknet_1_0__leaf_net892
*379 clknet_1_0__leaf_net894
*380 clknet_1_0__leaf_net907
*381 clknet_1_0__leaf_net909
*382 clknet_1_0__leaf_net910
*383 clknet_1_0__leaf_net911
*384 clknet_1_0__leaf_net912
*385 clknet_1_0__leaf_net922
*386 clknet_1_0__leaf_net925
*387 clknet_1_0__leaf_net94
*388 clknet_1_1__leaf_net100
*389 clknet_1_1__leaf_net183
*390 clknet_1_1__leaf_net185
*391 clknet_1_1__leaf_net187
*392 clknet_1_1__leaf_net202
*393 clknet_1_1__leaf_net210
*394 clknet_1_1__leaf_net224
*395 clknet_1_1__leaf_net259
*396 clknet_1_1__leaf_net262
*397 clknet_1_1__leaf_net265
*398 clknet_1_1__leaf_net275
*399 clknet_1_1__leaf_net277
*400 clknet_1_1__leaf_net278
*401 clknet_1_1__leaf_net287
*402 clknet_1_1__leaf_net293
*403 clknet_1_1__leaf_net300
*404 clknet_1_1__leaf_net303
*405 clknet_1_1__leaf_net304
*406 clknet_1_1__leaf_net306
*407 clknet_1_1__leaf_net307
*408 clknet_1_1__leaf_net311
*409 clknet_1_1__leaf_net314
*410 clknet_1_1__leaf_net316
*411 clknet_1_1__leaf_net325
*412 clknet_1_1__leaf_net330
*413 clknet_1_1__leaf_net335
*414 clknet_1_1__leaf_net338
*415 clknet_1_1__leaf_net339
*416 clknet_1_1__leaf_net361
*417 clknet_1_1__leaf_net363
*418 clknet_1_1__leaf_net364
*419 clknet_1_1__leaf_net365
*420 clknet_1_1__leaf_net368
*421 clknet_1_1__leaf_net376
*422 clknet_1_1__leaf_net382
*423 clknet_1_1__leaf_net383
*424 clknet_1_1__leaf_net384
*425 clknet_1_1__leaf_net396
*426 clknet_1_1__leaf_net398
*427 clknet_1_1__leaf_net416
*428 clknet_1_1__leaf_net422
*429 clknet_1_1__leaf_net423
*430 clknet_1_1__leaf_net424
*431 clknet_1_1__leaf_net427
*432 clknet_1_1__leaf_net436
*433 clknet_1_1__leaf_net466
*434 clknet_1_1__leaf_net478
*435 clknet_1_1__leaf_net484
*436 clknet_1_1__leaf_net489
*437 clknet_1_1__leaf_net496
*438 clknet_1_1__leaf_net499
*439 clknet_1_1__leaf_net506
*440 clknet_1_1__leaf_net525
*441 clknet_1_1__leaf_net526
*442 clknet_1_1__leaf_net527
*443 clknet_1_1__leaf_net529
*444 clknet_1_1__leaf_net532
*445 clknet_1_1__leaf_net547
*446 clknet_1_1__leaf_net649
*447 clknet_1_1__leaf_net650
*448 clknet_1_1__leaf_net671
*449 clknet_1_1__leaf_net672
*450 clknet_1_1__leaf_net673
*451 clknet_1_1__leaf_net689
*452 clknet_1_1__leaf_net690
*453 clknet_1_1__leaf_net691
*454 clknet_1_1__leaf_net708
*455 clknet_1_1__leaf_net709
*456 clknet_1_1__leaf_net726
*457 clknet_1_1__leaf_net727
*458 clknet_1_1__leaf_net728
*459 clknet_1_1__leaf_net746
*460 clknet_1_1__leaf_net764
*461 clknet_1_1__leaf_net868
*462 clknet_1_1__leaf_net875
*463 clknet_1_1__leaf_net878
*464 clknet_1_1__leaf_net879
*465 clknet_1_1__leaf_net88
*466 clknet_1_1__leaf_net880
*467 clknet_1_1__leaf_net887
*468 clknet_1_1__leaf_net891
*469 clknet_1_1__leaf_net892
*470 clknet_1_1__leaf_net894
*471 clknet_1_1__leaf_net907
*472 clknet_1_1__leaf_net909
*473 clknet_1_1__leaf_net910
*474 clknet_1_1__leaf_net911
*475 clknet_1_1__leaf_net912
*476 clknet_1_1__leaf_net922
*477 clknet_1_1__leaf_net925
*478 clknet_1_1__leaf_net94
*479 clknet_4_0_0_clk
*480 clknet_4_10_0_clk
*481 clknet_4_11_0_clk
*482 clknet_4_12_0_clk
*483 clknet_4_13_0_clk
*484 clknet_4_14_0_clk
*485 clknet_4_15_0_clk
*486 clknet_4_1_0_clk
*487 clknet_4_2_0_clk
*488 clknet_4_3_0_clk
*489 clknet_4_4_0_clk
*490 clknet_4_5_0_clk
*491 clknet_4_6_0_clk
*492 clknet_4_7_0_clk
*493 clknet_4_8_0_clk
*494 clknet_4_9_0_clk
*495 net0
*496 net1
*497 net10
*498 net100
*499 net1000
*500 net1001
*501 net1002
*502 net1003
*503 net1004
*504 net1005
*505 net1006
*506 net1007
*507 net1008
*508 net1009
*509 net101
*510 net1010
*511 net1011
*512 net1012
*513 net1013
*514 net1014
*515 net1015
*516 net1016
*517 net1017
*518 net1018
*519 net1019
*520 net102
*521 net1020
*522 net1021
*523 net1022
*524 net1023
*525 net1024
*526 net1025
*527 net1026
*528 net1027
*529 net1028
*530 net1029
*531 net103
*532 net1030
*533 net1031
*534 net1032
*535 net1033
*536 net1034
*537 net1035
*538 net1036
*539 net1037
*540 net1038
*541 net1039
*542 net104
*543 net1040
*544 net1041
*545 net1042
*546 net1043
*547 net1044
*548 net1045
*549 net1046
*550 net1047
*551 net1048
*552 net1049
*553 net105
*554 net1050
*555 net1051
*556 net1052
*557 net1053
*558 net1054
*559 net1055
*560 net1056
*561 net1057
*562 net1058
*563 net1059
*564 net106
*565 net1060
*566 net1061
*567 net1062
*568 net1063
*569 net1064
*570 net1065
*571 net1066
*572 net1067
*573 net1068
*574 net1069
*575 net107
*576 net1070
*577 net1071
*578 net1072
*579 net1073
*580 net1074
*581 net1075
*582 net1076
*583 net1077
*584 net1078
*585 net1079
*586 net108
*587 net1080
*588 net1081
*589 net1082
*590 net1083
*591 net1084
*592 net1085
*593 net1086
*594 net1087
*595 net1088
*596 net1089
*597 net109
*598 net1090
*599 net1091
*600 net1092
*601 net1093
*602 net1094
*603 net1095
*604 net1096
*605 net1097
*606 net1098
*607 net1099
*608 net11
*609 net110
*610 net1100
*611 net1101
*612 net1102
*613 net1103
*614 net1104
*615 net1105
*616 net1106
*617 net1107
*618 net1108
*619 net111
*620 net112
*621 net113
*622 net114
*623 net115
*624 net116
*625 net117
*626 net118
*627 net119
*628 net12
*629 net120
*630 net121
*631 net122
*632 net123
*633 net124
*634 net125
*635 net126
*636 net127
*637 net128
*638 net129
*639 net13
*640 net130
*641 net131
*642 net132
*643 net133
*644 net134
*645 net135
*646 net136
*647 net137
*648 net138
*649 net139
*650 net14
*651 net140
*652 net141
*653 net142
*654 net143
*655 net144
*656 net145
*657 net146
*658 net147
*659 net148
*660 net149
*661 net15
*662 net150
*663 net151
*664 net152
*665 net153
*666 net154
*667 net155
*668 net156
*669 net157
*670 net158
*671 net159
*672 net16
*673 net160
*674 net161
*675 net162
*676 net163
*677 net164
*678 net165
*679 net166
*680 net167
*681 net168
*682 net169
*683 net17
*684 net170
*685 net171
*686 net172
*687 net173
*688 net174
*689 net175
*690 net176
*691 net177
*692 net178
*693 net179
*694 net18
*695 net180
*696 net181
*697 net182
*698 net183
*699 net184
*700 net185
*701 net186
*702 net187
*703 net188
*704 net189
*705 net19
*706 net190
*707 net191
*708 net192
*709 net193
*710 net194
*711 net195
*712 net196
*713 net197
*714 net198
*715 net199
*716 net2
*717 net20
*718 net200
*719 net201
*720 net202
*721 net203
*722 net204
*723 net205
*724 net206
*725 net207
*726 net208
*727 net209
*728 net21
*729 net210
*730 net211
*731 net212
*732 net213
*733 net214
*734 net215
*735 net216
*736 net217
*737 net218
*738 net219
*739 net22
*740 net220
*741 net221
*742 net222
*743 net223
*744 net224
*745 net225
*746 net226
*747 net227
*748 net228
*749 net229
*750 net23
*751 net230
*752 net231
*753 net232
*754 net233
*755 net234
*756 net235
*757 net236
*758 net237
*759 net238
*760 net239
*761 net24
*762 net240
*763 net241
*764 net242
*765 net243
*766 net244
*767 net245
*768 net246
*769 net247
*770 net248
*771 net249
*772 net25
*773 net250
*774 net251
*775 net252
*776 net253
*777 net254
*778 net255
*779 net256
*780 net257
*781 net258
*782 net259
*783 net26
*784 net260
*785 net261
*786 net262
*787 net263
*788 net264
*789 net265
*790 net266
*791 net267
*792 net268
*793 net269
*794 net27
*795 net270
*796 net271
*797 net272
*798 net273
*799 net274
*800 net275
*801 net276
*802 net277
*803 net278
*804 net279
*805 net28
*806 net280
*807 net281
*808 net282
*809 net283
*810 net284
*811 net285
*812 net286
*813 net287
*814 net288
*815 net289
*816 net29
*817 net290
*818 net291
*819 net292
*820 net293
*821 net294
*822 net295
*823 net296
*824 net297
*825 net298
*826 net299
*827 net3
*828 net30
*829 net300
*830 net301
*831 net302
*832 net303
*833 net304
*834 net305
*835 net306
*836 net307
*837 net308
*838 net309
*839 net31
*840 net310
*841 net311
*842 net312
*843 net313
*844 net314
*845 net315
*846 net316
*847 net317
*848 net318
*849 net319
*850 net32
*851 net320
*852 net321
*853 net322
*854 net323
*855 net324
*856 net325
*857 net326
*858 net327
*859 net328
*860 net329
*861 net33
*862 net330
*863 net331
*864 net332
*865 net333
*866 net334
*867 net335
*868 net336
*869 net337
*870 net338
*871 net339
*872 net34
*873 net340
*874 net341
*875 net342
*876 net343
*877 net344
*878 net345
*879 net346
*880 net347
*881 net348
*882 net349
*883 net35
*884 net350
*885 net351
*886 net352
*887 net353
*888 net354
*889 net355
*890 net356
*891 net357
*892 net358
*893 net359
*894 net36
*895 net360
*896 net361
*897 net362
*898 net363
*899 net364
*900 net365
*901 net366
*902 net367
*903 net368
*904 net369
*905 net37
*906 net370
*907 net371
*908 net372
*909 net373
*910 net374
*911 net375
*912 net376
*913 net377
*914 net378
*915 net379
*916 net38
*917 net380
*918 net381
*919 net382
*920 net383
*921 net384
*922 net385
*923 net386
*924 net387
*925 net388
*926 net389
*927 net39
*928 net390
*929 net391
*930 net392
*931 net393
*932 net394
*933 net395
*934 net396
*935 net397
*936 net398
*937 net399
*938 net4
*939 net40
*940 net400
*941 net401
*942 net402
*943 net403
*944 net404
*945 net405
*946 net406
*947 net407
*948 net408
*949 net409
*950 net41
*951 net410
*952 net411
*953 net412
*954 net413
*955 net414
*956 net415
*957 net416
*958 net417
*959 net418
*960 net419
*961 net42
*962 net420
*963 net421
*964 net422
*965 net423
*966 net424
*967 net425
*968 net426
*969 net427
*970 net428
*971 net429
*972 net43
*973 net430
*974 net431
*975 net432
*976 net433
*977 net434
*978 net435
*979 net436
*980 net437
*981 net438
*982 net439
*983 net44
*984 net440
*985 net441
*986 net442
*987 net443
*988 net444
*989 net445
*990 net446
*991 net447
*992 net448
*993 net449
*994 net45
*995 net450
*996 net451
*997 net452
*998 net453
*999 net454
*1000 net455
*1001 net456
*1002 net457
*1003 net458
*1004 net459
*1005 net46
*1006 net460
*1007 net461
*1008 net462
*1009 net463
*1010 net464
*1011 net465
*1012 net466
*1013 net467
*1014 net468
*1015 net469
*1016 net47
*1017 net470
*1018 net471
*1019 net472
*1020 net473
*1021 net474
*1022 net475
*1023 net476
*1024 net477
*1025 net478
*1026 net479
*1027 net48
*1028 net480
*1029 net481
*1030 net482
*1031 net483
*1032 net484
*1033 net485
*1034 net486
*1035 net487
*1036 net488
*1037 net489
*1038 net49
*1039 net490
*1040 net491
*1041 net492
*1042 net493
*1043 net494
*1044 net495
*1045 net496
*1046 net497
*1047 net498
*1048 net499
*1049 net5
*1050 net50
*1051 net500
*1052 net501
*1053 net502
*1054 net503
*1055 net504
*1056 net505
*1057 net506
*1058 net507
*1059 net508
*1060 net509
*1061 net51
*1062 net510
*1063 net511
*1064 net512
*1065 net513
*1066 net514
*1067 net515
*1068 net516
*1069 net517
*1070 net518
*1071 net519
*1072 net52
*1073 net520
*1074 net521
*1075 net522
*1076 net523
*1077 net524
*1078 net525
*1079 net526
*1080 net527
*1081 net528
*1082 net529
*1083 net53
*1084 net530
*1085 net531
*1086 net532
*1087 net533
*1088 net534
*1089 net535
*1090 net536
*1091 net537
*1092 net538
*1093 net539
*1094 net54
*1095 net540
*1096 net541
*1097 net542
*1098 net543
*1099 net544
*1100 net545
*1101 net546
*1102 net547
*1103 net548
*1104 net549
*1105 net55
*1106 net550
*1107 net551
*1108 net552
*1109 net553
*1110 net554
*1111 net555
*1112 net556
*1113 net557
*1114 net558
*1115 net559
*1116 net56
*1117 net560
*1118 net561
*1119 net562
*1120 net563
*1121 net564
*1122 net565
*1123 net566
*1124 net567
*1125 net568
*1126 net569
*1127 net57
*1128 net570
*1129 net571
*1130 net572
*1131 net573
*1132 net574
*1133 net575
*1134 net576
*1135 net577
*1136 net578
*1137 net579
*1138 net58
*1139 net580
*1140 net581
*1141 net582
*1142 net583
*1143 net584
*1144 net585
*1145 net586
*1146 net587
*1147 net588
*1148 net589
*1149 net59
*1150 net590
*1151 net591
*1152 net592
*1153 net593
*1154 net594
*1155 net595
*1156 net596
*1157 net597
*1158 net598
*1159 net599
*1160 net6
*1161 net60
*1162 net600
*1163 net601
*1164 net602
*1165 net603
*1166 net604
*1167 net605
*1168 net606
*1169 net607
*1170 net608
*1171 net609
*1172 net61
*1173 net610
*1174 net611
*1175 net612
*1176 net613
*1177 net614
*1178 net615
*1179 net616
*1180 net617
*1181 net618
*1182 net619
*1183 net62
*1184 net620
*1185 net621
*1186 net622
*1187 net623
*1188 net624
*1189 net625
*1190 net626
*1191 net627
*1192 net628
*1193 net629
*1194 net63
*1195 net630
*1196 net631
*1197 net632
*1198 net633
*1199 net634
*1200 net635
*1201 net636
*1202 net637
*1203 net638
*1204 net639
*1205 net64
*1206 net640
*1207 net641
*1208 net642
*1209 net643
*1210 net644
*1211 net645
*1212 net646
*1213 net647
*1214 net648
*1215 net649
*1216 net65
*1217 net650
*1218 net651
*1219 net652
*1220 net653
*1221 net654
*1222 net655
*1223 net656
*1224 net657
*1225 net658
*1226 net659
*1227 net66
*1228 net660
*1229 net661
*1230 net662
*1231 net663
*1232 net664
*1233 net665
*1234 net666
*1235 net667
*1236 net668
*1237 net669
*1238 net67
*1239 net670
*1240 net671
*1241 net672
*1242 net673
*1243 net674
*1244 net675
*1245 net676
*1246 net677
*1247 net678
*1248 net679
*1249 net68
*1250 net680
*1251 net681
*1252 net682
*1253 net683
*1254 net684
*1255 net685
*1256 net686
*1257 net687
*1258 net688
*1259 net689
*1260 net69
*1261 net690
*1262 net691
*1263 net692
*1264 net693
*1265 net694
*1266 net695
*1267 net696
*1268 net697
*1269 net698
*1270 net699
*1271 net7
*1272 net70
*1273 net700
*1274 net701
*1275 net702
*1276 net703
*1277 net704
*1278 net705
*1279 net706
*1280 net707
*1281 net708
*1282 net709
*1283 net71
*1284 net710
*1285 net711
*1286 net712
*1287 net713
*1288 net714
*1289 net715
*1290 net716
*1291 net717
*1292 net718
*1293 net719
*1294 net72
*1295 net720
*1296 net721
*1297 net722
*1298 net723
*1299 net724
*1300 net725
*1301 net726
*1302 net727
*1303 net728
*1304 net729
*1305 net73
*1306 net730
*1307 net731
*1308 net732
*1309 net733
*1310 net734
*1311 net735
*1312 net736
*1313 net737
*1314 net738
*1315 net739
*1316 net74
*1317 net740
*1318 net741
*1319 net742
*1320 net743
*1321 net744
*1322 net745
*1323 net746
*1324 net747
*1325 net748
*1326 net749
*1327 net75
*1328 net750
*1329 net751
*1330 net752
*1331 net753
*1332 net754
*1333 net755
*1334 net756
*1335 net757
*1336 net758
*1337 net759
*1338 net76
*1339 net760
*1340 net761
*1341 net762
*1342 net763
*1343 net764
*1344 net765
*1345 net766
*1346 net767
*1347 net768
*1348 net769
*1349 net77
*1350 net770
*1351 net771
*1352 net772
*1353 net773
*1354 net774
*1355 net775
*1356 net776
*1357 net777
*1358 net778
*1359 net779
*1360 net78
*1361 net780
*1362 net781
*1363 net782
*1364 net783
*1365 net784
*1366 net785
*1367 net786
*1368 net787
*1369 net788
*1370 net789
*1371 net79
*1372 net790
*1373 net791
*1374 net792
*1375 net793
*1376 net794
*1377 net795
*1378 net796
*1379 net797
*1380 net798
*1381 net799
*1382 net8
*1383 net80
*1384 net800
*1385 net801
*1386 net802
*1387 net803
*1388 net804
*1389 net805
*1390 net806
*1391 net807
*1392 net808
*1393 net809
*1394 net81
*1395 net810
*1396 net811
*1397 net812
*1398 net813
*1399 net814
*1400 net815
*1401 net816
*1402 net817
*1403 net818
*1404 net819
*1405 net82
*1406 net820
*1407 net821
*1408 net822
*1409 net823
*1410 net824
*1411 net825
*1412 net826
*1413 net827
*1414 net828
*1415 net829
*1416 net83
*1417 net830
*1418 net831
*1419 net832
*1420 net833
*1421 net834
*1422 net835
*1423 net836
*1424 net837
*1425 net838
*1426 net839
*1427 net84
*1428 net840
*1429 net841
*1430 net842
*1431 net843
*1432 net844
*1433 net845
*1434 net846
*1435 net847
*1436 net848
*1437 net849
*1438 net85
*1439 net850
*1440 net851
*1441 net852
*1442 net853
*1443 net854
*1444 net855
*1445 net856
*1446 net857
*1447 net858
*1448 net859
*1449 net86
*1450 net860
*1451 net861
*1452 net862
*1453 net863
*1454 net864
*1455 net865
*1456 net866
*1457 net867
*1458 net868
*1459 net869
*1460 net87
*1461 net870
*1462 net871
*1463 net872
*1464 net873
*1465 net874
*1466 net875
*1467 net876
*1468 net877
*1469 net878
*1470 net879
*1471 net88
*1472 net880
*1473 net881
*1474 net882
*1475 net883
*1476 net884
*1477 net885
*1478 net886
*1479 net887
*1480 net888
*1481 net889
*1482 net89
*1483 net890
*1484 net891
*1485 net892
*1486 net893
*1487 net894
*1488 net895
*1489 net896
*1490 net897
*1491 net898
*1492 net899
*1493 net9
*1494 net90
*1495 net900
*1496 net901
*1497 net902
*1498 net903
*1499 net904
*1500 net905
*1501 net906
*1502 net907
*1503 net908
*1504 net909
*1505 net91
*1506 net910
*1507 net911
*1508 net912
*1509 net913
*1510 net914
*1511 net915
*1512 net916
*1513 net917
*1514 net918
*1515 net919
*1516 net92
*1517 net920
*1518 net921
*1519 net922
*1520 net923
*1521 net924
*1522 net925
*1523 net926
*1524 net927
*1525 net928
*1526 net929
*1527 net93
*1528 net930
*1529 net931
*1530 net932
*1531 net933
*1532 net934
*1533 net935
*1534 net936
*1535 net937
*1536 net938
*1537 net939
*1538 net94
*1539 net940
*1540 net941
*1541 net942
*1542 net943
*1543 net944
*1544 net945
*1545 net946
*1546 net947
*1547 net948
*1548 net949
*1549 net95
*1550 net950
*1551 net951
*1552 net952
*1553 net953
*1554 net954
*1555 net955
*1556 net956
*1557 net957
*1558 net958
*1559 net959
*1560 net96
*1561 net960
*1562 net961
*1563 net962
*1564 net963
*1565 net964
*1566 net965
*1567 net966
*1568 net967
*1569 net968
*1570 net969
*1571 net97
*1572 net970
*1573 net971
*1574 net972
*1575 net973
*1576 net974
*1577 net975
*1578 net976
*1579 net977
*1580 net978
*1581 net979
*1582 net98
*1583 net980
*1584 net981
*1585 net982
*1586 net983
*1587 net984
*1588 net985
*1589 net986
*1590 net987
*1591 net988
*1592 net989
*1593 net99
*1594 net990
*1595 net991
*1596 net992
*1597 net993
*1598 net994
*1599 net995
*1600 net996
*1601 net997
*1602 net998
*1603 net999
*1604 ANTENNA_1
*1605 ANTENNA_2
*1606 ANTENNA_c100_A1
*1607 ANTENNA_c100_A3
*1608 ANTENNA_c100_S1
*1609 ANTENNA_c101_A2
*1610 ANTENNA_c101_S0
*1611 ANTENNA_c101_S1
*1612 ANTENNA_c102_A0
*1613 ANTENNA_c102_A1
*1614 ANTENNA_c102_A2
*1615 ANTENNA_c102_X
*1616 ANTENNA_c103_A0
*1617 ANTENNA_c103_A2
*1618 ANTENNA_c103_S0
*1619 ANTENNA_c103_X
*1620 ANTENNA_c104_A1
*1621 ANTENNA_c105_A1
*1622 ANTENNA_c105_A3
*1623 ANTENNA_c105_S0
*1624 ANTENNA_c105_S1
*1625 ANTENNA_c106_A1
*1626 ANTENNA_c106_A3
*1627 ANTENNA_c106_S0
*1628 ANTENNA_c106_S1
*1629 ANTENNA_c107_A0
*1630 ANTENNA_c107_A2
*1631 ANTENNA_c107_S0
*1632 ANTENNA_c107_X
*1633 ANTENNA_c108_A2
*1634 ANTENNA_c108_A3
*1635 ANTENNA_c108_S0
*1636 ANTENNA_c108_S1
*1637 ANTENNA_c109_A1
*1638 ANTENNA_c109_S1
*1639 ANTENNA_c109_X
*1640 ANTENNA_c110_A2
*1641 ANTENNA_c110_A3
*1642 ANTENNA_c111_A1
*1643 ANTENNA_c111_A2
*1644 ANTENNA_c111_A3
*1645 ANTENNA_c111_B1
*1646 ANTENNA_c113_A2
*1647 ANTENNA_c113_B1
*1648 ANTENNA_c114_A4
*1649 ANTENNA_c115_A1
*1650 ANTENNA_c115_A3
*1651 ANTENNA_c115_S1
*1652 ANTENNA_c116_A3
*1653 ANTENNA_c116_B1
*1654 ANTENNA_c117_A3
*1655 ANTENNA_c117_S1
*1656 ANTENNA_c118_A0
*1657 ANTENNA_c119_A3
*1658 ANTENNA_c119_A4
*1659 ANTENNA_c119_B1
*1660 ANTENNA_c120_A3
*1661 ANTENNA_c120_A4
*1662 ANTENNA_c120_B1
*1663 ANTENNA_c121_A3
*1664 ANTENNA_c122_A1
*1665 ANTENNA_c122_A2
*1666 ANTENNA_c124_A0
*1667 ANTENNA_c124_A3
*1668 ANTENNA_c124_S0
*1669 ANTENNA_c126_A2
*1670 ANTENNA_c129_B1
*1671 ANTENNA_c131_A3
*1672 ANTENNA_c132_A1
*1673 ANTENNA_c132_A2
*1674 ANTENNA_c132_A3
*1675 ANTENNA_c132_A4
*1676 ANTENNA_c132_B1
*1677 ANTENNA_c132_X
*1678 ANTENNA_c133_A1
*1679 ANTENNA_c133_A2
*1680 ANTENNA_c133_A3
*1681 ANTENNA_c133_A4
*1682 ANTENNA_c133_B1
*1683 ANTENNA_c133_X
*1684 ANTENNA_c134_A1
*1685 ANTENNA_c134_A2
*1686 ANTENNA_c134_A3
*1687 ANTENNA_c134_B1
*1688 ANTENNA_c134_X
*1689 ANTENNA_c135_A1
*1690 ANTENNA_c135_A2
*1691 ANTENNA_c135_A3
*1692 ANTENNA_c135_A4
*1693 ANTENNA_c135_B1
*1694 ANTENNA_c135_X
*1695 ANTENNA_c136_A1
*1696 ANTENNA_c136_A3
*1697 ANTENNA_c136_A4
*1698 ANTENNA_c136_B1
*1699 ANTENNA_c136_X
*1700 ANTENNA_c137_A1
*1701 ANTENNA_c137_A2
*1702 ANTENNA_c137_A3
*1703 ANTENNA_c137_B1
*1704 ANTENNA_c137_X
*1705 ANTENNA_c138_A1
*1706 ANTENNA_c138_A2
*1707 ANTENNA_c138_A3
*1708 ANTENNA_c138_A4
*1709 ANTENNA_c138_X
*1710 ANTENNA_c139_A2
*1711 ANTENNA_c139_A3
*1712 ANTENNA_c139_A4
*1713 ANTENNA_c139_B1
*1714 ANTENNA_c139_X
*1715 ANTENNA_c140_A1
*1716 ANTENNA_c140_A2
*1717 ANTENNA_c140_A3
*1718 ANTENNA_c140_B1
*1719 ANTENNA_c140_X
*1720 ANTENNA_c141_A1
*1721 ANTENNA_c141_A2
*1722 ANTENNA_c141_A3
*1723 ANTENNA_c141_A4
*1724 ANTENNA_c141_B1
*1725 ANTENNA_c142_A1
*1726 ANTENNA_c142_A2
*1727 ANTENNA_c142_S0
*1728 ANTENNA_c142_X
*1729 ANTENNA_c143_A2
*1730 ANTENNA_c143_A3
*1731 ANTENNA_c144_A2
*1732 ANTENNA_c144_S0
*1733 ANTENNA_c144_X
*1734 ANTENNA_c145_A1
*1735 ANTENNA_c145_A2
*1736 ANTENNA_c145_A3
*1737 ANTENNA_c145_S0
*1738 ANTENNA_c145_S1
*1739 ANTENNA_c146_A2
*1740 ANTENNA_c146_A3
*1741 ANTENNA_c146_A4
*1742 ANTENNA_c146_X
*1743 ANTENNA_c147_A0
*1744 ANTENNA_c147_A1
*1745 ANTENNA_c147_S0
*1746 ANTENNA_c148_A1
*1747 ANTENNA_c148_A3
*1748 ANTENNA_c148_X
*1749 ANTENNA_c149_A1
*1750 ANTENNA_c149_A4
*1751 ANTENNA_c149_X
*1752 ANTENNA_c150_A0
*1753 ANTENNA_c150_A1
*1754 ANTENNA_c150_A2
*1755 ANTENNA_c150_S1
*1756 ANTENNA_c151_A1
*1757 ANTENNA_c151_A2
*1758 ANTENNA_c151_A4
*1759 ANTENNA_c151_X
*1760 ANTENNA_c152_A0
*1761 ANTENNA_c152_A1
*1762 ANTENNA_c152_A2
*1763 ANTENNA_c152_S0
*1764 ANTENNA_c152_S1
*1765 ANTENNA_c153_A0
*1766 ANTENNA_c153_A1
*1767 ANTENNA_c153_A2
*1768 ANTENNA_c153_S0
*1769 ANTENNA_c153_S1
*1770 ANTENNA_c154_A1
*1771 ANTENNA_c154_A2
*1772 ANTENNA_c154_A3
*1773 ANTENNA_c154_A4
*1774 ANTENNA_c154_B1
*1775 ANTENNA_c155_A0
*1776 ANTENNA_c155_A3
*1777 ANTENNA_c155_S0
*1778 ANTENNA_c155_S1
*1779 ANTENNA_c155_X
*1780 ANTENNA_c156_A1
*1781 ANTENNA_c156_A2
*1782 ANTENNA_c156_A3
*1783 ANTENNA_c156_A4
*1784 ANTENNA_c156_B1
*1785 ANTENNA_c156_X
*1786 ANTENNA_c157_A0
*1787 ANTENNA_c157_A1
*1788 ANTENNA_c157_A2
*1789 ANTENNA_c157_A3
*1790 ANTENNA_c157_S0
*1791 ANTENNA_c157_S1
*1792 ANTENNA_c157_X
*1793 ANTENNA_c158_A3
*1794 ANTENNA_c158_A4
*1795 ANTENNA_c158_B1
*1796 ANTENNA_c159_A2
*1797 ANTENNA_c159_A3
*1798 ANTENNA_c159_A4
*1799 ANTENNA_c159_B1
*1800 ANTENNA_c159_X
*1801 ANTENNA_c160_A1
*1802 ANTENNA_c160_A2
*1803 ANTENNA_c160_A3
*1804 ANTENNA_c160_A4
*1805 ANTENNA_c160_B1
*1806 ANTENNA_c160_X
*1807 ANTENNA_c161_A1
*1808 ANTENNA_c161_A2
*1809 ANTENNA_c161_A4
*1810 ANTENNA_c161_B1
*1811 ANTENNA_c161_X
*1812 ANTENNA_c162_A1
*1813 ANTENNA_c162_A3
*1814 ANTENNA_c162_A4
*1815 ANTENNA_c162_X
*1816 ANTENNA_c163_A0
*1817 ANTENNA_c163_A1
*1818 ANTENNA_c163_A2
*1819 ANTENNA_c163_A3
*1820 ANTENNA_c163_S0
*1821 ANTENNA_c163_S1
*1822 ANTENNA_c163_X
*1823 ANTENNA_c164_A0
*1824 ANTENNA_c164_A1
*1825 ANTENNA_c164_A2
*1826 ANTENNA_c164_A3
*1827 ANTENNA_c164_S0
*1828 ANTENNA_c164_S1
*1829 ANTENNA_c164_X
*1830 ANTENNA_c165_A0
*1831 ANTENNA_c165_A1
*1832 ANTENNA_c165_A2
*1833 ANTENNA_c165_A3
*1834 ANTENNA_c165_S0
*1835 ANTENNA_c165_S1
*1836 ANTENNA_c165_X
*1837 ANTENNA_c166_A1
*1838 ANTENNA_c166_A2
*1839 ANTENNA_c166_A3
*1840 ANTENNA_c166_A4
*1841 ANTENNA_c166_B1
*1842 ANTENNA_c166_X
*1843 ANTENNA_c167_A1
*1844 ANTENNA_c167_A2
*1845 ANTENNA_c167_A3
*1846 ANTENNA_c167_A4
*1847 ANTENNA_c167_B1
*1848 ANTENNA_c168_A0
*1849 ANTENNA_c168_A1
*1850 ANTENNA_c168_A2
*1851 ANTENNA_c168_A3
*1852 ANTENNA_c168_S0
*1853 ANTENNA_c168_X
*1854 ANTENNA_c169_A0
*1855 ANTENNA_c169_A1
*1856 ANTENNA_c169_A2
*1857 ANTENNA_c169_S0
*1858 ANTENNA_c169_S1
*1859 ANTENNA_c170_A0
*1860 ANTENNA_c170_A2
*1861 ANTENNA_c170_A3
*1862 ANTENNA_c170_S0
*1863 ANTENNA_c170_X
*1864 ANTENNA_c171_A0
*1865 ANTENNA_c171_A1
*1866 ANTENNA_c171_A2
*1867 ANTENNA_c171_A3
*1868 ANTENNA_c171_S0
*1869 ANTENNA_c171_S1
*1870 ANTENNA_c171_X
*1871 ANTENNA_c172_A0
*1872 ANTENNA_c172_A1
*1873 ANTENNA_c172_A2
*1874 ANTENNA_c172_A3
*1875 ANTENNA_c172_S0
*1876 ANTENNA_c173_A0
*1877 ANTENNA_c173_A1
*1878 ANTENNA_c173_A2
*1879 ANTENNA_c173_A3
*1880 ANTENNA_c173_S0
*1881 ANTENNA_c174_A1
*1882 ANTENNA_c174_A2
*1883 ANTENNA_c174_A3
*1884 ANTENNA_c174_A4
*1885 ANTENNA_c175_A1
*1886 ANTENNA_c175_A2