*SPEF "ieee 1481-1999"
*DESIGN "netlist_0"
*DATE "22:44:50 Thursday August 15, 2024"
*VENDOR "The OpenROAD Project"
*PROGRAM "OpenROAD"
*VERSION "d423155d69de7f683a23f6916ead418a615ad4ad"
*DESIGN_FLOW "NAME_SCOPE LOCAL" "PIN_CAP NONE"
*DIVIDER /
*DELIMITER :
*BUS_DELIMITER []
*T_UNIT 1 NS
*C_UNIT 1 PF
*R_UNIT 1 OHM
*L_UNIT 1 HENRY

*NAME_MAP
*3 clk
*4 in0
*5 in1
*6 in10
*7 in11
*8 in12
*9 in13
*10 in14
*11 in15
*12 in16
*13 in17
*14 in18
*15 in19
*16 in2
*17 in20
*18 in21
*19 in22
*20 in23
*21 in24
*22 in25
*23 in26
*24 in27
*25 in28
*26 in29
*27 in3
*28 in30
*29 in31
*30 in32
*31 in33
*32 in34
*33 in35
*34 in36
*35 in37
*36 in38
*37 in39
*38 in4
*39 in40
*40 in41
*41 in42
*42 in43
*43 in44
*44 in45
*45 in46
*46 in47
*47 in48
*48 in49
*49 in5
*50 in50
*51 in51
*52 in52
*53 in53
*54 in54
*55 in55
*56 in56
*57 in57
*58 in58
*59 in59
*60 in6
*61 in60
*62 in61
*63 in62
*64 in63
*65 in64
*66 in65
*67 in66
*68 in67
*69 in68
*70 in69
*71 in7
*72 in70
*73 in71
*74 in72
*75 in73
*76 in74
*77 in75
*78 in76
*79 in77
*80 in78
*81 in79
*82 in8
*83 in80
*84 in81
*85 in82
*86 in83
*87 in84
*88 in85
*89 in86
*90 in87
*91 in88
*92 in89
*93 in9
*94 in90
*95 in91
*96 in92
*97 in93
*98 in94
*99 in95
*100 in96
*101 in97
*102 in98
*103 in99
*104 out0
*105 out1
*106 out10
*107 out11
*108 out12
*109 out13
*110 out14
*111 out15
*112 out16
*113 out17
*114 out18
*115 out19
*116 out2
*117 out20
*118 out21
*119 out22
*120 out23
*121 out24
*122 out25
*123 out26
*124 out27
*125 out28
*126 out29
*127 out3
*128 out30
*129 out31
*130 out32
*131 out33
*132 out34
*133 out35
*134 out36
*135 out37
*136 out38
*137 out39
*138 out4
*139 out40
*140 out41
*141 out42
*142 out43
*143 out44
*144 out45
*145 out46
*146 out47
*147 out48
*148 out49
*149 out5
*150 out50
*151 out51
*152 out52
*153 out53
*154 out54
*155 out55
*156 out56
*157 out57
*158 out58
*159 out59
*160 out6
*161 out60
*162 out61
*163 out62
*164 out63
*165 out64
*166 out65
*167 out66
*168 out67
*169 out68
*170 out69
*171 out7
*172 out70
*173 out71
*174 out72
*175 out73
*176 out74
*177 out75
*178 out76
*179 out77
*180 out78
*181 out79
*182 out8
*183 out80
*184 out81
*185 out82
*186 out83
*187 out84
*188 out85
*189 out86
*190 out87
*191 out88
*192 out89
*193 out9
*194 out90
*195 out91
*196 out92
*197 out93
*198 out94
*199 out95
*200 out96
*201 out97
*202 out98
*203 out99
*204 rst
*205 clknet_0_clk
*206 clknet_0_net155
*207 clknet_0_net173
*208 clknet_0_net174
*209 clknet_0_net176
*210 clknet_0_net177
*211 clknet_0_net180
*212 clknet_0_net183
*213 clknet_0_net189
*214 clknet_0_net250
*215 clknet_0_net276
*216 clknet_0_net281
*217 clknet_0_net290
*218 clknet_0_net292
*219 clknet_0_net296
*220 clknet_0_net315
*221 clknet_0_net316
*222 clknet_0_net317
*223 clknet_0_net318
*224 clknet_0_net321
*225 clknet_0_net338
*226 clknet_0_net343
*227 clknet_0_net345
*228 clknet_0_net349
*229 clknet_0_net355
*230 clknet_0_net359
*231 clknet_0_net367
*232 clknet_0_net371
*233 clknet_0_net385
*234 clknet_0_net386
*235 clknet_0_net389
*236 clknet_0_net400
*237 clknet_0_net426
*238 clknet_0_net428
*239 clknet_0_net429
*240 clknet_0_net435
*241 clknet_0_net437
*242 clknet_0_net440
*243 clknet_0_net444
*244 clknet_0_net448
*245 clknet_0_net450
*246 clknet_0_net451
*247 clknet_0_net452
*248 clknet_0_net454
*249 clknet_0_net457
*250 clknet_0_net458
*251 clknet_0_net459
*252 clknet_0_net463
*253 clknet_0_net466
*254 clknet_0_net482
*255 clknet_0_net483
*256 clknet_0_net492
*257 clknet_0_net571
*258 clknet_0_net577
*259 clknet_0_net609
*260 clknet_0_net610
*261 clknet_0_net630
*262 clknet_0_net631
*263 clknet_0_net632
*264 clknet_0_net651
*265 clknet_0_net652
*266 clknet_0_net653
*267 clknet_0_net671
*268 clknet_0_net672
*269 clknet_0_net673
*270 clknet_0_net691
*271 clknet_0_net692
*272 clknet_0_net693
*273 clknet_0_net711
*274 clknet_0_net712
*275 clknet_0_net713
*276 clknet_0_net78
*277 clknet_0_net834
*278 clknet_0_net836
*279 clknet_0_net84
*280 clknet_0_net844
*281 clknet_0_net851
*282 clknet_0_net853
*283 clknet_0_net855
*284 clknet_0_net86
*285 clknet_0_net860
*286 clknet_0_net866
*287 clknet_0_net868
*288 clknet_0_net875
*289 clknet_0_net93
*290 clknet_0_net96
*291 clknet_1_0__leaf_net155
*292 clknet_1_0__leaf_net173
*293 clknet_1_0__leaf_net174
*294 clknet_1_0__leaf_net176
*295 clknet_1_0__leaf_net177
*296 clknet_1_0__leaf_net180
*297 clknet_1_0__leaf_net183
*298 clknet_1_0__leaf_net189
*299 clknet_1_0__leaf_net250
*300 clknet_1_0__leaf_net276
*301 clknet_1_0__leaf_net281
*302 clknet_1_0__leaf_net290
*303 clknet_1_0__leaf_net292
*304 clknet_1_0__leaf_net296
*305 clknet_1_0__leaf_net315
*306 clknet_1_0__leaf_net316
*307 clknet_1_0__leaf_net317
*308 clknet_1_0__leaf_net318
*309 clknet_1_0__leaf_net321
*310 clknet_1_0__leaf_net338
*311 clknet_1_0__leaf_net343
*312 clknet_1_0__leaf_net345
*313 clknet_1_0__leaf_net349
*314 clknet_1_0__leaf_net355
*315 clknet_1_0__leaf_net359
*316 clknet_1_0__leaf_net367
*317 clknet_1_0__leaf_net371
*318 clknet_1_0__leaf_net385
*319 clknet_1_0__leaf_net386
*320 clknet_1_0__leaf_net389
*321 clknet_1_0__leaf_net400
*322 clknet_1_0__leaf_net426
*323 clknet_1_0__leaf_net428
*324 clknet_1_0__leaf_net429
*325 clknet_1_0__leaf_net435
*326 clknet_1_0__leaf_net437
*327 clknet_1_0__leaf_net440
*328 clknet_1_0__leaf_net444
*329 clknet_1_0__leaf_net448
*330 clknet_1_0__leaf_net450
*331 clknet_1_0__leaf_net451
*332 clknet_1_0__leaf_net452
*333 clknet_1_0__leaf_net454
*334 clknet_1_0__leaf_net457
*335 clknet_1_0__leaf_net458
*336 clknet_1_0__leaf_net459
*337 clknet_1_0__leaf_net463
*338 clknet_1_0__leaf_net466
*339 clknet_1_0__leaf_net482
*340 clknet_1_0__leaf_net483
*341 clknet_1_0__leaf_net492
*342 clknet_1_0__leaf_net571
*343 clknet_1_0__leaf_net577
*344 clknet_1_0__leaf_net609
*345 clknet_1_0__leaf_net610
*346 clknet_1_0__leaf_net630
*347 clknet_1_0__leaf_net631
*348 clknet_1_0__leaf_net632
*349 clknet_1_0__leaf_net651
*350 clknet_1_0__leaf_net652
*351 clknet_1_0__leaf_net653
*352 clknet_1_0__leaf_net671
*353 clknet_1_0__leaf_net672
*354 clknet_1_0__leaf_net673
*355 clknet_1_0__leaf_net691
*356 clknet_1_0__leaf_net692
*357 clknet_1_0__leaf_net693
*358 clknet_1_0__leaf_net711
*359 clknet_1_0__leaf_net712
*360 clknet_1_0__leaf_net713
*361 clknet_1_0__leaf_net78
*362 clknet_1_0__leaf_net834
*363 clknet_1_0__leaf_net836
*364 clknet_1_0__leaf_net84
*365 clknet_1_0__leaf_net844
*366 clknet_1_0__leaf_net851
*367 clknet_1_0__leaf_net853
*368 clknet_1_0__leaf_net855
*369 clknet_1_0__leaf_net86
*370 clknet_1_0__leaf_net860
*371 clknet_1_0__leaf_net866
*372 clknet_1_0__leaf_net868
*373 clknet_1_0__leaf_net875
*374 clknet_1_0__leaf_net93
*375 clknet_1_0__leaf_net96
*376 clknet_1_1__leaf_net155
*377 clknet_1_1__leaf_net173
*378 clknet_1_1__leaf_net174
*379 clknet_1_1__leaf_net176
*380 clknet_1_1__leaf_net177
*381 clknet_1_1__leaf_net180
*382 clknet_1_1__leaf_net183
*383 clknet_1_1__leaf_net189
*384 clknet_1_1__leaf_net250
*385 clknet_1_1__leaf_net276
*386 clknet_1_1__leaf_net281
*387 clknet_1_1__leaf_net290
*388 clknet_1_1__leaf_net292
*389 clknet_1_1__leaf_net296
*390 clknet_1_1__leaf_net315
*391 clknet_1_1__leaf_net316
*392 clknet_1_1__leaf_net317
*393 clknet_1_1__leaf_net318
*394 clknet_1_1__leaf_net321
*395 clknet_1_1__leaf_net338
*396 clknet_1_1__leaf_net343
*397 clknet_1_1__leaf_net345
*398 clknet_1_1__leaf_net349
*399 clknet_1_1__leaf_net355
*400 clknet_1_1__leaf_net359
*401 clknet_1_1__leaf_net367
*402 clknet_1_1__leaf_net371
*403 clknet_1_1__leaf_net385
*404 clknet_1_1__leaf_net386
*405 clknet_1_1__leaf_net389
*406 clknet_1_1__leaf_net400
*407 clknet_1_1__leaf_net426
*408 clknet_1_1__leaf_net428
*409 clknet_1_1__leaf_net429
*410 clknet_1_1__leaf_net435
*411 clknet_1_1__leaf_net437
*412 clknet_1_1__leaf_net440
*413 clknet_1_1__leaf_net444
*414 clknet_1_1__leaf_net448
*415 clknet_1_1__leaf_net450
*416 clknet_1_1__leaf_net451
*417 clknet_1_1__leaf_net452
*418 clknet_1_1__leaf_net454
*419 clknet_1_1__leaf_net457
*420 clknet_1_1__leaf_net458
*421 clknet_1_1__leaf_net459
*422 clknet_1_1__leaf_net463
*423 clknet_1_1__leaf_net466
*424 clknet_1_1__leaf_net482
*425 clknet_1_1__leaf_net483
*426 clknet_1_1__leaf_net492
*427 clknet_1_1__leaf_net571
*428 clknet_1_1__leaf_net577
*429 clknet_1_1__leaf_net609
*430 clknet_1_1__leaf_net610
*431 clknet_1_1__leaf_net630
*432 clknet_1_1__leaf_net631
*433 clknet_1_1__leaf_net632
*434 clknet_1_1__leaf_net651
*435 clknet_1_1__leaf_net652
*436 clknet_1_1__leaf_net653
*437 clknet_1_1__leaf_net671
*438 clknet_1_1__leaf_net672
*439 clknet_1_1__leaf_net673
*440 clknet_1_1__leaf_net691
*441 clknet_1_1__leaf_net692
*442 clknet_1_1__leaf_net693
*443 clknet_1_1__leaf_net711
*444 clknet_1_1__leaf_net712
*445 clknet_1_1__leaf_net713
*446 clknet_1_1__leaf_net78
*447 clknet_1_1__leaf_net834
*448 clknet_1_1__leaf_net836
*449 clknet_1_1__leaf_net84
*450 clknet_1_1__leaf_net844
*451 clknet_1_1__leaf_net851
*452 clknet_1_1__leaf_net853
*453 clknet_1_1__leaf_net855
*454 clknet_1_1__leaf_net86
*455 clknet_1_1__leaf_net860
*456 clknet_1_1__leaf_net866
*457 clknet_1_1__leaf_net868
*458 clknet_1_1__leaf_net875
*459 clknet_1_1__leaf_net93
*460 clknet_1_1__leaf_net96
*461 clknet_4_0_0_clk
*462 clknet_4_10_0_clk
*463 clknet_4_11_0_clk
*464 clknet_4_12_0_clk
*465 clknet_4_13_0_clk
*466 clknet_4_14_0_clk
*467 clknet_4_15_0_clk
*468 clknet_4_1_0_clk
*469 clknet_4_2_0_clk
*470 clknet_4_3_0_clk
*471 clknet_4_4_0_clk
*472 clknet_4_5_0_clk
*473 clknet_4_6_0_clk
*474 clknet_4_7_0_clk
*475 clknet_4_8_0_clk
*476 clknet_4_9_0_clk
*477 net0
*478 net1
*479 net10
*480 net100
*481 net1000
*482 net1001
*483 net1002
*484 net1003
*485 net1004
*486 net1005
*487 net1006
*488 net1007
*489 net1008
*490 net1009
*491 net101
*492 net1010
*493 net1011
*494 net1012
*495 net1013
*496 net1014
*497 net1015
*498 net1016
*499 net1017
*500 net1018
*501 net1019
*502 net102
*503 net1020
*504 net1021
*505 net1022
*506 net1023
*507 net1024
*508 net1025
*509 net1026
*510 net1027
*511 net1028
*512 net1029
*513 net103
*514 net1030
*515 net1031
*516 net1032
*517 net1033
*518 net1034
*519 net1035
*520 net1036
*521 net1037
*522 net1038
*523 net1039
*524 net104
*525 net1040
*526 net1041
*527 net1042
*528 net1043
*529 net1044
*530 net1045
*531 net1046
*532 net1047
*533 net1048
*534 net1049
*535 net105
*536 net1050
*537 net1051
*538 net1052
*539 net1053
*540 net1054
*541 net1055
*542 net1056
*543 net1057
*544 net1058
*545 net1059
*546 net106
*547 net1060
*548 net1061
*549 net1062
*550 net1063
*551 net1064
*552 net1065
*553 net1066
*554 net1067
*555 net1068
*556 net1069
*557 net107
*558 net1070
*559 net1071
*560 net1072
*561 net1073
*562 net1074
*563 net1075
*564 net1076
*565 net1077
*566 net1078
*567 net1079
*568 net108
*569 net1080
*570 net1081
*571 net1082
*572 net1083
*573 net1084
*574 net1085
*575 net1086
*576 net109
*577 net11
*578 net110
*579 net111
*580 net112
*581 net113
*582 net114
*583 net115
*584 net116
*585 net117
*586 net118
*587 net119
*588 net12
*589 net120
*590 net121
*591 net122
*592 net123
*593 net124
*594 net125
*595 net126
*596 net127
*597 net128
*598 net129
*599 net13
*600 net130
*601 net131
*602 net132
*603 net133
*604 net134
*605 net135
*606 net136
*607 net137
*608 net138
*609 net139
*610 net14
*611 net140
*612 net141
*613 net142
*614 net143
*615 net144
*616 net145
*617 net146
*618 net147
*619 net148
*620 net149
*621 net15
*622 net150
*623 net151
*624 net152
*625 net153
*626 net154
*627 net155
*628 net156
*629 net157
*630 net158
*631 net159
*632 net16
*633 net160
*634 net161
*635 net162
*636 net163
*637 net164
*638 net165
*639 net166
*640 net167
*641 net168
*642 net169
*643 net17
*644 net170
*645 net171
*646 net172
*647 net173
*648 net174
*649 net175
*650 net176
*651 net177
*652 net178
*653 net179
*654 net18
*655 net180
*656 net181
*657 net182
*658 net183
*659 net184
*660 net185
*661 net186
*662 net187
*663 net188
*664 net189
*665 net19
*666 net190
*667 net191
*668 net192
*669 net193
*670 net194
*671 net195
*672 net196
*673 net197
*674 net198
*675 net199
*676 net2
*677 net20
*678 net200
*679 net201
*680 net202
*681 net203
*682 net204
*683 net205
*684 net206
*685 net207
*686 net208
*687 net209
*688 net21
*689 net210
*690 net211
*691 net212
*692 net213
*693 net214
*694 net215
*695 net216
*696 net217
*697 net218
*698 net219
*699 net22
*700 net220
*701 net221
*702 net222
*703 net223
*704 net224
*705 net225
*706 net226
*707 net227
*708 net228
*709 net229
*710 net23
*711 net230
*712 net231
*713 net232
*714 net233
*715 net234
*716 net235
*717 net236
*718 net237
*719 net238
*720 net239
*721 net24
*722 net240
*723 net241
*724 net242
*725 net243
*726 net244
*727 net245
*728 net246
*729 net247
*730 net248
*731 net249
*732 net25
*733 net250
*734 net251
*735 net252
*736 net253
*737 net254
*738 net255
*739 net256
*740 net257
*741 net258
*742 net259
*743 net26
*744 net260
*745 net261
*746 net262
*747 net263
*748 net264
*749 net265
*750 net266
*751 net267
*752 net268
*753 net269
*754 net27
*755 net270
*756 net271
*757 net272
*758 net273
*759 net274
*760 net275
*761 net276
*762 net277
*763 net278
*764 net279
*765 net28
*766 net280
*767 net281
*768 net282
*769 net283
*770 net284
*771 net285
*772 net286
*773 net287
*774 net288
*775 net289
*776 net29
*777 net290
*778 net291
*779 net292
*780 net293
*781 net294
*782 net295
*783 net296
*784 net297
*785 net298
*786 net299
*787 net3
*788 net30
*789 net300
*790 net301
*791 net302
*792 net303
*793 net304
*794 net305
*795 net306
*796 net307
*797 net308
*798 net309
*799 net31
*800 net310
*801 net311
*802 net312
*803 net313
*804 net314
*805 net315
*806 net316
*807 net317
*808 net318
*809 net319
*810 net32
*811 net320
*812 net321
*813 net322
*814 net323
*815 net324
*816 net325
*817 net326
*818 net327
*819 net328
*820 net329
*821 net33
*822 net330
*823 net331
*824 net332
*825 net333
*826 net334
*827 net335
*828 net336
*829 net337
*830 net338
*831 net339
*832 net34
*833 net340
*834 net341
*835 net342
*836 net343
*837 net344
*838 net345
*839 net346
*840 net347
*841 net348
*842 net349
*843 net35
*844 net350
*845 net351
*846 net352
*847 net353
*848 net354
*849 net355
*850 net356
*851 net357
*852 net358
*853 net359
*854 net36
*855 net360
*856 net361
*857 net362
*858 net363
*859 net364
*860 net365
*861 net366
*862 net367
*863 net368
*864 net369
*865 net37
*866 net370
*867 net371
*868 net372
*869 net373
*870 net374
*871 net375
*872 net376
*873 net377
*874 net378
*875 net379
*876 net38
*877 net380
*878 net381
*879 net382
*880 net383
*881 net384
*882 net385
*883 net386
*884 net387
*885 net388
*886 net389
*887 net39
*888 net390
*889 net391
*890 net392
*891 net393
*892 net394
*893 net395
*894 net396
*895 net397
*896 net398
*897 net399
*898 net4
*899 net40
*900 net400
*901 net401
*902 net402
*903 net403
*904 net404
*905 net405
*906 net406
*907 net407
*908 net408
*909 net409
*910 net41
*911 net410
*912 net411
*913 net412
*914 net413
*915 net414
*916 net415
*917 net416
*918 net417
*919 net418
*920 net419
*921 net42
*922 net420
*923 net421
*924 net422
*925 net423
*926 net424
*927 net425
*928 net426
*929 net427
*930 net428
*931 net429
*932 net43
*933 net430
*934 net431
*935 net432
*936 net433
*937 net434
*938 net435
*939 net436
*940 net437
*941 net438
*942 net439
*943 net44
*944 net440
*945 net441
*946 net442
*947 net443
*948 net444
*949 net445
*950 net446
*951 net447
*952 net448
*953 net449
*954 net45
*955 net450
*956 net451
*957 net452
*958 net453
*959 net454
*960 net455
*961 net456
*962 net457
*963 net458
*964 net459
*965 net46
*966 net460
*967 net461
*968 net462
*969 net463
*970 net464
*971 net465
*972 net466
*973 net467
*974 net468
*975 net469
*976 net47
*977 net470
*978 net471
*979 net472
*980 net473
*981 net474
*982 net475
*983 net476
*984 net477
*985 net478
*986 net479
*987 net48
*988 net480
*989 net481
*990 net482
*991 net483
*992 net484
*993 net485
*994 net486
*995 net487
*996 net488
*997 net489
*998 net49
*999 net490
*1000 net491
*1001 net492
*1002 net493
*1003 net494
*1004 net495
*1005 net496
*1006 net497
*1007 net498
*1008 net499
*1009 net5
*1010 net50
*1011 net500
*1012 net501
*1013 net502
*1014 net503
*1015 net504
*1016 net505
*1017 net506
*1018 net507
*1019 net508
*1020 net509
*1021 net51
*1022 net510
*1023 net511
*1024 net512
*1025 net513
*1026 net514
*1027 net515
*1028 net516
*1029 net517
*1030 net518
*1031 net519
*1032 net52
*1033 net520
*1034 net521
*1035 net522
*1036 net523
*1037 net524
*1038 net525
*1039 net526
*1040 net527
*1041 net528
*1042 net529
*1043 net53
*1044 net530
*1045 net531
*1046 net532
*1047 net533
*1048 net534
*1049 net535
*1050 net536
*1051 net537
*1052 net538
*1053 net539
*1054 net54
*1055 net540
*1056 net541
*1057 net542
*1058 net543
*1059 net544
*1060 net545
*1061 net546
*1062 net547
*1063 net548
*1064 net549
*1065 net55
*1066 net550
*1067 net551
*1068 net552
*1069 net553
*1070 net554
*1071 net555
*1072 net556
*1073 net557
*1074 net558
*1075 net559
*1076 net56
*1077 net560
*1078 net561
*1079 net562
*1080 net563
*1081 net564
*1082 net565
*1083 net566
*1084 net567
*1085 net568
*1086 net569
*1087 net57
*1088 net570
*1089 net571
*1090 net572
*1091 net573
*1092 net574
*1093 net575
*1094 net576
*1095 net577
*1096 net578
*1097 net579
*1098 net58
*1099 net580
*1100 net581
*1101 net582
*1102 net583
*1103 net584
*1104 net585
*1105 net586
*1106 net587
*1107 net588
*1108 net589
*1109 net59
*1110 net590
*1111 net591
*1112 net592
*1113 net593
*1114 net594
*1115 net595
*1116 net596
*1117 net597
*1118 net598
*1119 net599
*1120 net6
*1121 net60
*1122 net600
*1123 net601
*1124 net602
*1125 net603
*1126 net604
*1127 net605
*1128 net606
*1129 net607
*1130 net608
*1131 net609
*1132 net61
*1133 net610
*1134 net611
*1135 net612
*1136 net613
*1137 net614
*1138 net615
*1139 net616
*1140 net617
*1141 net618
*1142 net619
*1143 net62
*1144 net620
*1145 net621
*1146 net622
*1147 net623
*1148 net624
*1149 net625
*1150 net626
*1151 net627
*1152 net628
*1153 net629
*1154 net63
*1155 net630
*1156 net631
*1157 net632
*1158 net633
*1159 net634
*1160 net635
*1161 net636
*1162 net637
*1163 net638
*1164 net639
*1165 net64
*1166 net640
*1167 net641
*1168 net642
*1169 net643
*1170 net644
*1171 net645
*1172 net646
*1173 net647
*1174 net648
*1175 net649
*1176 net65
*1177 net650
*1178 net651
*1179 net652
*1180 net653
*1181 net654
*1182 net655
*1183 net656
*1184 net657
*1185 net658
*1186 net659
*1187 net66
*1188 net660
*1189 net661
*1190 net662
*1191 net663
*1192 net664
*1193 net665
*1194 net666
*1195 net667
*1196 net668
*1197 net669
*1198 net67
*1199 net670
*1200 net671
*1201 net672
*1202 net673
*1203 net674
*1204 net675
*1205 net676
*1206 net677
*1207 net678
*1208 net679
*1209 net68
*1210 net680
*1211 net681
*1212 net682
*1213 net683
*1214 net684
*1215 net685
*1216 net686
*1217 net687
*1218 net688
*1219 net689
*1220 net69
*1221 net690
*1222 net691
*1223 net692
*1224 net693
*1225 net694
*1226 net695
*1227 net696
*1228 net697
*1229 net698
*1230 net699
*1231 net7
*1232 net70
*1233 net700
*1234 net701
*1235 net702
*1236 net703
*1237 net704
*1238 net705
*1239 net706
*1240 net707
*1241 net708
*1242 net709
*1243 net71
*1244 net710
*1245 net711
*1246 net712
*1247 net713
*1248 net714
*1249 net715
*1250 net716
*1251 net717
*1252 net718
*1253 net719
*1254 net72
*1255 net720
*1256 net721
*1257 net722
*1258 net723
*1259 net724
*1260 net725
*1261 net726
*1262 net727
*1263 net728
*1264 net729
*1265 net73
*1266 net730
*1267 net731
*1268 net732
*1269 net733
*1270 net734
*1271 net735
*1272 net736
*1273 net737
*1274 net738
*1275 net739
*1276 net74
*1277 net740
*1278 net741
*1279 net742
*1280 net743
*1281 net744
*1282 net745
*1283 net746
*1284 net747
*1285 net748
*1286 net749
*1287 net75
*1288 net750
*1289 net751
*1290 net752
*1291 net753
*1292 net754
*1293 net755
*1294 net756
*1295 net757
*1296 net758
*1297 net759
*1298 net76
*1299 net760
*1300 net761
*1301 net762
*1302 net763
*1303 net764
*1304 net765
*1305 net766
*1306 net767
*1307 net768
*1308 net769
*1309 net77
*1310 net770
*1311 net771
*1312 net772
*1313 net773
*1314 net774
*1315 net775
*1316 net776
*1317 net777
*1318 net778
*1319 net779
*1320 net78
*1321 net780
*1322 net781
*1323 net782
*1324 net783
*1325 net784
*1326 net785
*1327 net786
*1328 net787
*1329 net788
*1330 net789
*1331 net79
*1332 net790
*1333 net791
*1334 net792
*1335 net793
*1336 net794
*1337 net795
*1338 net796
*1339 net797
*1340 net798
*1341 net799
*1342 net8
*1343 net80
*1344 net800
*1345 net801
*1346 net802
*1347 net803
*1348 net804
*1349 net805
*1350 net806
*1351 net807
*1352 net808
*1353 net809
*1354 net81
*1355 net810
*1356 net811
*1357 net812
*1358 net813
*1359 net814
*1360 net815
*1361 net816
*1362 net817
*1363 net818
*1364 net819
*1365 net82
*1366 net820
*1367 net821
*1368 net822
*1369 net823
*1370 net824
*1371 net825
*1372 net826
*1373 net827
*1374 net828
*1375 net829
*1376 net83
*1377 net830
*1378 net831
*1379 net832
*1380 net833
*1381 net834
*1382 net835
*1383 net836
*1384 net837
*1385 net838
*1386 net839
*1387 net84
*1388 net840
*1389 net841
*1390 net842
*1391 net843
*1392 net844
*1393 net845
*1394 net846
*1395 net847
*1396 net848
*1397 net849
*1398 net85
*1399 net850
*1400 net851
*1401 net852
*1402 net853
*1403 net854
*1404 net855
*1405 net856
*1406 net857
*1407 net858
*1408 net859
*1409 net86
*1410 net860
*1411 net861
*1412 net862
*1413 net863
*1414 net864
*1415 net865
*1416 net866
*1417 net867
*1418 net868
*1419 net869
*1420 net87
*1421 net870
*1422 net871
*1423 net872
*1424 net873
*1425 net874
*1426 net875
*1427 net876
*1428 net877
*1429 net878
*1430 net879
*1431 net88
*1432 net880
*1433 net881
*1434 net882
*1435 net883
*1436 net884
*1437 net885
*1438 net886
*1439 net887
*1440 net888
*1441 net889
*1442 net89
*1443 net890
*1444 net891
*1445 net892
*1446 net893
*1447 net894
*1448 net895
*1449 net896
*1450 net897
*1451 net898
*1452 net899
*1453 net9
*1454 net90
*1455 net900
*1456 net901
*1457 net902
*1458 net903
*1459 net904
*1460 net905
*1461 net906
*1462 net907
*1463 net908
*1464 net909
*1465 net91
*1466 net910
*1467 net911
*1468 net912
*1469 net913
*1470 net914
*1471 net915
*1472 net916
*1473 net917
*1474 net918
*1475 net919
*1476 net92
*1477 net920
*1478 net921
*1479 net922
*1480 net923
*1481 net924
*1482 net925
*1483 net926
*1484 net927
*1485 net928
*1486 net929
*1487 net93
*1488 net930
*1489 net931
*1490 net932
*1491 net933
*1492 net934
*1493 net935
*1494 net936
*1495 net937
*1496 net938
*1497 net939
*1498 net94
*1499 net940
*1500 net941
*1501 net942
*1502 net943
*1503 net944
*1504 net945
*1505 net946
*1506 net947
*1507 net948
*1508 net949
*1509 net95
*1510 net950
*1511 net951
*1512 net952
*1513 net953
*1514 net954
*1515 net955
*1516 net956
*1517 net957
*1518 net958
*1519 net959
*1520 net96
*1521 net960
*1522 net961
*1523 net962
*1524 net963
*1525 net964
*1526 net965
*1527 net966
*1528 net967
*1529 net968
*1530 net969
*1531 net97
*1532 net970
*1533 net971
*1534 net972
*1535 net973
*1536 net974
*1537 net975
*1538 net976
*1539 net977
*1540 net978
*1541 net979
*1542 net98
*1543 net980
*1544 net981
*1545 net982
*1546 net983
*1547 net984
*1548 net985
*1549 net986
*1550 net987
*1551 net988
*1552 net989
*1553 net99
*1554 net990
*1555 net991
*1556 net992
*1557 net993
*1558 net994
*1559 net995
*1560 net996
*1561 net997
*1562 net998
*1563 net999
*1564 ANTENNA_1
*1565 ANTENNA_c100_A0
*1566 ANTENNA_c100_A2
*1567 ANTENNA_c100_S0
*1568 ANTENNA_c100_S1
*1569 ANTENNA_c101_A3
*1570 ANTENNA_c101_X
*1571 ANTENNA_c102_A0
*1572 ANTENNA_c102_A1
*1573 ANTENNA_c102_S0
*1574 ANTENNA_c102_S1
*1575 ANTENNA_c102_X
*1576 ANTENNA_c103_A1
*1577 ANTENNA_c103_A2
*1578 ANTENNA_c103_S0
*1579 ANTENNA_c103_S1
*1580 ANTENNA_c104_A1
*1581 ANTENNA_c104_A2
*1582 ANTENNA_c104_A3
*1583 ANTENNA_c104_S0
*1584 ANTENNA_c104_X
*1585 ANTENNA_c105_A2
*1586 ANTENNA_c105_A3
*1587 ANTENNA_c105_S0
*1588 ANTENNA_c106_A1
*1589 ANTENNA_c106_A2
*1590 ANTENNA_c106_A3
*1591 ANTENNA_c106_S1
*1592 ANTENNA_c107_A1
*1593 ANTENNA_c107_A2
*1594 ANTENNA_c107_A3
*1595 ANTENNA_c107_S0
*1596 ANTENNA_c107_S1
*1597 ANTENNA_c108_A1
*1598 ANTENNA_c108_A3
*1599 ANTENNA_c109_S0
*1600 ANTENNA_c109_S1
*1601 ANTENNA_c122_A1
*1602 ANTENNA_c122_A2
*1603 ANTENNA_c122_A3
*1604 ANTENNA_c122_S0
*1605 ANTENNA_c123_A0
*1606 ANTENNA_c123_A2
*1607 ANTENNA_c123_S0
*1608 ANTENNA_c124_A0
*1609 ANTENNA_c124_A1
*1610 ANTENNA_c124_A2
*1611 ANTENNA_c124_A3
*1612 ANTENNA_c124_S0
*1613 ANTENNA_c124_S1
*1614 ANTENNA_c125_A2
*1615 ANTENNA_c125_S1
*1616 ANTENNA_c126_S1
*1617 ANTENNA_c127_A0
*1618 ANTENNA_c128_A2
*1619 ANTENNA_c128_S0
*1620 ANTENNA_c129_A0
*1621 ANTENNA_c129_A1
*1622 ANTENNA_c129_S0
*1623 ANTENNA_c130_A1
*1624 ANTENNA_c130_A3
*1625 ANTENNA_c131_S1
*1626 ANTENNA_c132_A1
*1627 ANTENNA_c132_A2
*1628 ANTENNA_c132_A3
*1629 ANTENNA_c132_A4
*1630 ANTENNA_c132_B1
*1631 ANTENNA_c132_X
*1632 ANTENNA_c133_A1
*1633 ANTENNA_c133_A2
*1634 ANTENNA_c133_A3
*1635 ANTENNA_c133_B1
*1636 ANTENNA_c134_A2
*1637 ANTENNA_c134_A3
*1638 ANTENNA_c134_A4
*1639 ANTENNA_c134_B1
*1640 ANTENNA_c134_X
*1641 ANTENNA_c135_A1
*1642 ANTENNA_c135_A2
*1643 ANTENNA_c135_A3
*1644 ANTENNA_c135_B1
*1645 ANTENNA_c135_X
*1646 ANTENNA_c136_A0
*1647 ANTENNA_c136_A1
*1648 ANTENNA_c136_A2
*1649 ANTENNA_c136_A3
*1650 ANTENNA_c136_S1
*1651 ANTENNA_c136_X
*1652 ANTENNA_c137_A1
*1653 ANTENNA_c137_A2
*1654 ANTENNA_c137_A3
*1655 ANTENNA_c137_A4
*1656 ANTENNA_c137_B1
*1657 ANTENNA_c137_X
*1658 ANTENNA_c138_A1
*1659 ANTENNA_c138_A2
*1660 ANTENNA_c138_A3
*1661 ANTENNA_c138_B1
*1662 ANTENNA_c139_A1
*1663 ANTENNA_c139_A3
*1664 ANTENNA_c139_A4
*1665 ANTENNA_c139_B1
*1666 ANTENNA_c139_X
*1667 ANTENNA_c140_A1
*1668 ANTENNA_c140_A2
*1669 ANTENNA_c140_A4
*1670 ANTENNA_c140_B1
*1671 ANTENNA_c140_X
*1672 ANTENNA_c141_A3
*1673 ANTENNA_c141_B1
*1674 ANTENNA_c141_X
*1675 ANTENNA_c142_A1
*1676 ANTENNA_c142_A2
*1677 ANTENNA_c142_A4
*1678 ANTENNA_c142_B1
*1679 ANTENNA_c143_A3
*1680 ANTENNA_c143_A4
*1681 ANTENNA_c143_B1
*1682 ANTENNA_c143_X
*1683 ANTENNA_c144_A2
*1684 ANTENNA_c144_A3
*1685 ANTENNA_c144_S0
*1686 ANTENNA_c144_S1
*1687 ANTENNA_c144_X
*1688 ANTENNA_c145_A0
*1689 ANTENNA_c145_A1
*1690 ANTENNA_c145_A3
*1691 ANTENNA_c145_S0
*1692 ANTENNA_c146_A2
*1693 ANTENNA_c146_A4
*1694 ANTENNA_c146_B1
*1695 ANTENNA_c147_A2
*1696 ANTENNA_c147_A3
*1697 ANTENNA_c147_A4
*1698 ANTENNA_c147_B1
*1699 ANTENNA_c147_X
*1700 ANTENNA_c148_A1
*1701 ANTENNA_c148_A3
*1702 ANTENNA_c148_A4
*1703 ANTENNA_c148_X
*1704 ANTENNA_c149_A1
*1705 ANTENNA_c149_A2
*1706 ANTENNA_c149_A4
*1707 ANTENNA_c149_X
*1708 ANTENNA_c150_A1
*1709 ANTENNA_c150_A2
*1710 ANTENNA_c150_A3
*1711 ANTENNA_c150_A4
*1712 ANTENNA_c150_X
*1713 ANTENNA_c151_A1
*1714 ANTENNA_c151_A3
*1715 ANTENNA_c151_S0
*1716 ANTENNA_c151_S1
*1717 ANTENNA_c151_X
*1718 ANTENNA_c152_A0
*1719 ANTENNA_c152_A1
*1720 ANTENNA_c152_A2
*1721 ANTENNA_c152_A3
*1722 ANTENNA_c152_S0
*1723 ANTENNA_c152_S1
*1724 ANTENNA_c153_A0
*1725 ANTENNA_c153_A2
*1726 ANTENNA_c153_A3
*1727 ANTENNA_c153_S0
*1728 ANTENNA_c153_S1
*1729 ANTENNA_c154_A2
*1730 ANTENNA_c154_A3
*1731 ANTENNA_c154_A4
*1732 ANTENNA_c154_B1
*1733 ANTENNA_c154_X
*1734 ANTENNA_c155_A1
*1735 ANTENNA_c155_A2
*1736 ANTENNA_c155_A3
*1737 ANTENNA_c155_A4
*1738 ANTENNA_c155_B1
*1739 ANTENNA_c155_X
*1740 ANTENNA_c156_A1
*1741 ANTENNA_c156_A2
*1742 ANTENNA_c156_A3
*1743 ANTENNA_c156_A4
*1744 ANTENNA_c156_B1
*1745 ANTENNA_c157_A1
*1746 ANTENNA_c157_A3
*1747 ANTENNA_c157_A4
*1748 ANTENNA_c157_B1
*1749 ANTENNA_c157_X
*1750 ANTENNA_c158_A2
*1751 ANTENNA_c158_A3
*1752 ANTENNA_c158_B1
*1753 ANTENNA_c159_A1
*1754 ANTENNA_c159_A4
*1755 ANTENNA_c159_B1
*1756 ANTENNA_c160_A1
*1757 ANTENNA_c160_A2
*1758 ANTENNA_c160_A3
*1759 ANTENNA_c160_X
*1760 ANTENNA_c161_A0
*1761 ANTENNA_c161_A2
*1762 ANTENNA_c161_S0
*1763 ANTENNA_c161_S1
*1764 ANTENNA_c162_A1
*1765 ANTENNA_c162_A2
*1766 ANTENNA_c162_A3
*1767 ANTENNA_c162_A4
*1768 ANTENNA_c162_B1
*1769 ANTENNA_c163_A1
*1770 ANTENNA_c163_A2
*1771 ANTENNA_c163_A3
*1772 ANTENNA_c163_S0
*1773 ANTENNA_c163_S1
*1774 ANTENNA_c163_X
*1775 ANTENNA_c164_A2
*1776 ANTENNA_c164_A3
*1777 ANTENNA_c164_A4
*1778 ANTENNA_c164_X
*1779 ANTENNA_c165_A1
*1780 ANTENNA_c165_A2
*1781 ANTENNA_c165_X
*1782 ANTENNA_c166_A0
*1783 ANTENNA_c166_A1
*1784 ANTENNA_c166_A2
*1785 ANTENNA_c166_A3
*1786 ANTENNA_c166_S0
*1787 ANTENNA_c166_S1
*1788 ANTENNA_c166_X
*1789 ANTENNA_c167_A1
*1790 ANTENNA_c167_A2
*1791 ANTENNA_c167_A4
*1792 ANTENNA_c167_X
*1793 ANTENNA_c168_A0
*1794 ANTENNA_c168_A2
*1795 ANTENNA_c168_A3
*1796 ANTENNA_c168_S0
*1797 ANTENNA_c168_S1
*1798 ANTENNA_c168_X
*1799 ANTENNA_c169_A0
*1800 ANTENNA_c169_A1
*1801 ANTENNA_c169_A2
*1802 ANTENNA_c169_A3
*1803 ANTENNA_c169_S0
*1804 ANTENNA_c169_S1
*1805 ANTENNA_c169_X
*1806 ANTENNA_c170_A0
*1807 ANTENNA_c170_A1
*1808 ANTENNA_c170_A2
*1809 ANTENNA_c170_A3
*1810 ANTENNA_c170_S0
*1811 ANTENNA_c170_S1
*1812 ANTENNA_c170_X
*1813 ANTENNA_c171_A0
*1814 ANTENNA_c171_A2
*1815 ANTENNA_c171_A3
*1816 ANTENNA_c171_S0
*1817 ANTENNA_c171_S1
*1818 ANTENNA_c171_X
*1819 ANTENNA_c172_A0
*1820 ANTENNA_c172_A1
*1821 ANTENNA_c172_A2
*1822 ANTENNA_c172_A3
*1823 ANTENNA_c172_S0
*1824 ANTENNA_c172_S1
*1825 ANTENNA_c173_A0
*1826 ANTENNA_c173_A1
*1827 ANTENNA_c173_A3
*1828 ANTENNA_c173_S0
*1829 ANTENNA_c173_S1
*1830 ANTENNA_c174_A0
*1831 ANTENNA_c174_A1
*1832 ANTENNA_c174_A2
*1833 ANTENNA_c174_A3
*1834 ANTENNA_c174_S0
*1835 ANTENNA_c174_S1
*1836 ANTENNA_c175_A0
*1837 ANTENNA_c175_A1
*1838 ANTENNA_c175_A2
*1839 ANTENNA_c175_A3
*1840 ANTENNA_c175_S1
*1841 ANTENNA_c176_A1
*1842 ANTENNA_c176_A2
*1843 ANTENNA_c176_A3
*1844 ANTENNA_c176_A4
*1845 ANTENNA_c176_B1
*1846 ANTENNA_c176_X
*1847 ANTENNA_c177_A0
*1848 ANTENNA_c177_A1
*1849 ANTENNA_c177_A2
*1850 ANTENNA_c177_S0
*1851 ANTENNA_c177_S1
*1852 ANTENNA_c178_A1
*1853 ANTENNA_c178_A2
*1854 ANTENNA_c178_A3
*1855 ANTENNA_c178_A4
*1856 ANTENNA_c178_B1
*1857 ANTENNA_c178_X
*1858 ANTENNA_c179_A2
*1859 ANTENNA_c179_A3
*1860 ANTENNA_c179_A4
*1861 ANTENNA_c179_B1
*1862 ANTENNA_c179_X
*1863 ANTENNA_c180_A0
*1864 ANTENNA_c180_A1
*1865 ANTENNA_c180_A2
*1866 ANTENNA_c180_A3
*1867 ANTENNA_c180_S0
*1868 ANTENNA_c180_S1
*1869 ANTENNA_c180_X
*1870 ANTENNA_c181_A0
*1871 ANTENNA_c181_A1
*1872 ANTENNA_c181_A2
*1873 ANTENNA_c181_A3
*1874 ANTENNA_c181_S0
*1875 ANTENNA_c181_S1
*1876 ANTENNA_c182_A1
*1877 ANTENNA_c182_A2
*1878 ANTENNA_c182_A3
*1879 ANTENNA_c182_X
*1880 ANTENNA_c183_A0
*1881 ANTENNA_c183_A1
*1882 ANTENNA_c183_A2
*1883 ANTENNA_c183_A3