*SPEF "ieee 1481-1999"
*DESIGN "netlist_0"
*DATE "19:59:54 Wednesday August 14, 2024"
*VENDOR "The OpenROAD Project"
*PROGRAM "OpenROAD"
*VERSION "d423155d69de7f683a23f6916ead418a615ad4ad"
*DESIGN_FLOW "NAME_SCOPE LOCAL" "PIN_CAP NONE"
*DIVIDER /
*DELIMITER :
*BUS_DELIMITER []
*T_UNIT 1 NS
*C_UNIT 1 PF
*R_UNIT 1 OHM
*L_UNIT 1 HENRY

*NAME_MAP
*3 clk
*4 in0
*5 in1
*6 in10
*7 in11
*8 in12
*9 in13
*10 in14
*11 in15
*12 in16
*13 in17
*14 in18
*15 in19
*16 in2
*17 in20
*18 in21
*19 in22
*20 in23
*21 in24
*22 in25
*23 in26
*24 in27
*25 in28
*26 in29
*27 in3
*28 in30
*29 in31
*30 in32
*31 in33
*32 in34
*33 in35
*34 in36
*35 in37
*36 in38
*37 in39
*38 in4
*39 in40
*40 in41
*41 in42
*42 in43
*43 in44
*44 in45
*45 in46
*46 in47
*47 in48
*48 in49
*49 in5
*50 in50
*51 in51
*52 in52
*53 in53
*54 in54
*55 in55
*56 in56
*57 in57
*58 in58
*59 in59
*60 in6
*61 in60
*62 in61
*63 in62
*64 in63
*65 in64
*66 in65
*67 in66
*68 in67
*69 in68
*70 in69
*71 in7
*72 in70
*73 in71
*74 in72
*75 in73
*76 in74
*77 in75
*78 in76
*79 in77
*80 in78
*81 in79
*82 in8
*83 in80
*84 in81
*85 in82
*86 in83
*87 in84
*88 in85
*89 in86
*90 in87
*91 in88
*92 in89
*93 in9
*94 in90
*95 in91
*96 in92
*97 in93
*98 in94
*99 in95
*100 in96
*101 in97
*102 in98
*103 in99
*104 out0
*105 out1
*106 out10
*107 out11
*108 out12
*109 out13
*110 out14
*111 out15
*112 out16
*113 out17
*114 out18
*115 out19
*116 out2
*117 out20
*118 out21
*119 out22
*120 out23
*121 out24
*122 out25
*123 out26
*124 out27
*125 out28
*126 out29
*127 out3
*128 out30
*129 out31
*130 out32
*131 out33
*132 out34
*133 out35
*134 out36
*135 out37
*136 out38
*137 out39
*138 out4
*139 out40
*140 out41
*141 out42
*142 out43
*143 out44
*144 out45
*145 out46
*146 out47
*147 out48
*148 out49
*149 out5
*150 out50
*151 out51
*152 out52
*153 out53
*154 out54
*155 out55
*156 out56
*157 out57
*158 out58
*159 out59
*160 out6
*161 out60
*162 out61
*163 out62
*164 out63
*165 out64
*166 out65
*167 out66
*168 out67
*169 out68
*170 out69
*171 out7
*172 out70
*173 out71
*174 out72
*175 out73
*176 out74
*177 out75
*178 out76
*179 out77
*180 out78
*181 out79
*182 out8
*183 out80
*184 out81
*185 out82
*186 out83
*187 out84
*188 out85
*189 out86
*190 out87
*191 out88
*192 out89
*193 out9
*194 out90
*195 out91
*196 out92
*197 out93
*198 out94
*199 out95
*200 out96
*201 out97
*202 out98
*203 out99
*204 rst
*205 clknet_0_clk
*206 clknet_0_net100
*207 clknet_0_net105
*208 clknet_0_net110
*209 clknet_0_net111
*210 clknet_0_net114
*211 clknet_0_net169
*212 clknet_0_net189
*213 clknet_0_net190
*214 clknet_0_net193
*215 clknet_0_net196
*216 clknet_0_net198
*217 clknet_0_net199
*218 clknet_0_net200
*219 clknet_0_net208
*220 clknet_0_net214
*221 clknet_0_net216
*222 clknet_0_net218
*223 clknet_0_net220
*224 clknet_0_net222
*225 clknet_0_net226
*226 clknet_0_net269
*227 clknet_0_net271
*228 clknet_0_net275
*229 clknet_0_net277
*230 clknet_0_net283
*231 clknet_0_net288
*232 clknet_0_net291
*233 clknet_0_net299
*234 clknet_0_net301
*235 clknet_0_net305
*236 clknet_0_net315
*237 clknet_0_net320
*238 clknet_0_net325
*239 clknet_0_net328
*240 clknet_0_net330
*241 clknet_0_net331
*242 clknet_0_net351
*243 clknet_0_net354
*244 clknet_0_net355
*245 clknet_0_net358
*246 clknet_0_net361
*247 clknet_0_net365
*248 clknet_0_net366
*249 clknet_0_net368
*250 clknet_0_net369
*251 clknet_0_net375
*252 clknet_0_net376
*253 clknet_0_net379
*254 clknet_0_net385
*255 clknet_0_net386
*256 clknet_0_net387
*257 clknet_0_net388
*258 clknet_0_net389
*259 clknet_0_net391
*260 clknet_0_net392
*261 clknet_0_net394
*262 clknet_0_net399
*263 clknet_0_net400
*264 clknet_0_net402
*265 clknet_0_net404
*266 clknet_0_net405
*267 clknet_0_net412
*268 clknet_0_net420
*269 clknet_0_net421
*270 clknet_0_net428
*271 clknet_0_net446
*272 clknet_0_net450
*273 clknet_0_net462
*274 clknet_0_net467
*275 clknet_0_net468
*276 clknet_0_net473
*277 clknet_0_net474
*278 clknet_0_net476
*279 clknet_0_net481
*280 clknet_0_net484
*281 clknet_0_net486
*282 clknet_0_net487
*283 clknet_0_net489
*284 clknet_0_net494
*285 clknet_0_net495
*286 clknet_0_net497
*287 clknet_0_net502
*288 clknet_0_net504
*289 clknet_0_net506
*290 clknet_0_net511
*291 clknet_0_net527
*292 clknet_0_net533
*293 clknet_0_net612
*294 clknet_0_net613
*295 clknet_0_net614
*296 clknet_0_net645
*297 clknet_0_net646
*298 clknet_0_net663
*299 clknet_0_net664
*300 clknet_0_net680
*301 clknet_0_net699
*302 clknet_0_net700
*303 clknet_0_net701
*304 clknet_0_net719
*305 clknet_0_net720
*306 clknet_0_net721
*307 clknet_0_net738
*308 clknet_0_net739
*309 clknet_0_net740
*310 clknet_0_net756
*311 clknet_0_net757
*312 clknet_0_net758
*313 clknet_0_net775
*314 clknet_0_net883
*315 clknet_0_net884
*316 clknet_0_net892
*317 clknet_0_net893
*318 clknet_0_net897
*319 clknet_0_net899
*320 clknet_0_net902
*321 clknet_0_net907
*322 clknet_0_net908
*323 clknet_0_net909
*324 clknet_0_net911
*325 clknet_0_net914
*326 clknet_0_net917
*327 clknet_0_net918
*328 clknet_0_net919
*329 clknet_0_net922
*330 clknet_0_net924
*331 clknet_0_net925
*332 clknet_0_net927
*333 clknet_0_net928
*334 clknet_0_net931
*335 clknet_0_net933
*336 clknet_0_net938
*337 clknet_0_net942
*338 clknet_0_net944
*339 clknet_0_net945
*340 clknet_0_net948
*341 clknet_0_net952
*342 clknet_0_net96
*343 clknet_0_net99
*344 clknet_1_0__leaf_net100
*345 clknet_1_0__leaf_net105
*346 clknet_1_0__leaf_net110
*347 clknet_1_0__leaf_net111
*348 clknet_1_0__leaf_net114
*349 clknet_1_0__leaf_net169
*350 clknet_1_0__leaf_net189
*351 clknet_1_0__leaf_net190
*352 clknet_1_0__leaf_net193
*353 clknet_1_0__leaf_net196
*354 clknet_1_0__leaf_net198
*355 clknet_1_0__leaf_net199
*356 clknet_1_0__leaf_net200
*357 clknet_1_0__leaf_net208
*358 clknet_1_0__leaf_net214
*359 clknet_1_0__leaf_net216
*360 clknet_1_0__leaf_net218
*361 clknet_1_0__leaf_net220
*362 clknet_1_0__leaf_net222
*363 clknet_1_0__leaf_net226
*364 clknet_1_0__leaf_net269
*365 clknet_1_0__leaf_net271
*366 clknet_1_0__leaf_net275
*367 clknet_1_0__leaf_net277
*368 clknet_1_0__leaf_net283
*369 clknet_1_0__leaf_net288
*370 clknet_1_0__leaf_net291
*371 clknet_1_0__leaf_net299
*372 clknet_1_0__leaf_net301
*373 clknet_1_0__leaf_net305
*374 clknet_1_0__leaf_net315
*375 clknet_1_0__leaf_net320
*376 clknet_1_0__leaf_net325
*377 clknet_1_0__leaf_net328
*378 clknet_1_0__leaf_net330
*379 clknet_1_0__leaf_net331
*380 clknet_1_0__leaf_net351
*381 clknet_1_0__leaf_net354
*382 clknet_1_0__leaf_net355
*383 clknet_1_0__leaf_net358
*384 clknet_1_0__leaf_net361
*385 clknet_1_0__leaf_net365
*386 clknet_1_0__leaf_net366
*387 clknet_1_0__leaf_net368
*388 clknet_1_0__leaf_net369
*389 clknet_1_0__leaf_net375
*390 clknet_1_0__leaf_net376
*391 clknet_1_0__leaf_net379
*392 clknet_1_0__leaf_net385
*393 clknet_1_0__leaf_net386
*394 clknet_1_0__leaf_net387
*395 clknet_1_0__leaf_net388
*396 clknet_1_0__leaf_net389
*397 clknet_1_0__leaf_net391
*398 clknet_1_0__leaf_net392
*399 clknet_1_0__leaf_net394
*400 clknet_1_0__leaf_net399
*401 clknet_1_0__leaf_net400
*402 clknet_1_0__leaf_net402
*403 clknet_1_0__leaf_net404
*404 clknet_1_0__leaf_net405
*405 clknet_1_0__leaf_net412
*406 clknet_1_0__leaf_net420
*407 clknet_1_0__leaf_net421
*408 clknet_1_0__leaf_net428
*409 clknet_1_0__leaf_net446
*410 clknet_1_0__leaf_net450
*411 clknet_1_0__leaf_net462
*412 clknet_1_0__leaf_net467
*413 clknet_1_0__leaf_net468
*414 clknet_1_0__leaf_net473
*415 clknet_1_0__leaf_net474
*416 clknet_1_0__leaf_net476
*417 clknet_1_0__leaf_net481
*418 clknet_1_0__leaf_net484
*419 clknet_1_0__leaf_net486
*420 clknet_1_0__leaf_net487
*421 clknet_1_0__leaf_net489
*422 clknet_1_0__leaf_net494
*423 clknet_1_0__leaf_net495
*424 clknet_1_0__leaf_net497
*425 clknet_1_0__leaf_net502
*426 clknet_1_0__leaf_net504
*427 clknet_1_0__leaf_net506
*428 clknet_1_0__leaf_net511
*429 clknet_1_0__leaf_net527
*430 clknet_1_0__leaf_net533
*431 clknet_1_0__leaf_net612
*432 clknet_1_0__leaf_net613
*433 clknet_1_0__leaf_net614
*434 clknet_1_0__leaf_net645
*435 clknet_1_0__leaf_net646
*436 clknet_1_0__leaf_net663
*437 clknet_1_0__leaf_net664
*438 clknet_1_0__leaf_net680
*439 clknet_1_0__leaf_net699
*440 clknet_1_0__leaf_net700
*441 clknet_1_0__leaf_net701
*442 clknet_1_0__leaf_net719
*443 clknet_1_0__leaf_net720
*444 clknet_1_0__leaf_net721
*445 clknet_1_0__leaf_net738
*446 clknet_1_0__leaf_net739
*447 clknet_1_0__leaf_net740
*448 clknet_1_0__leaf_net756
*449 clknet_1_0__leaf_net757
*450 clknet_1_0__leaf_net758
*451 clknet_1_0__leaf_net775
*452 clknet_1_0__leaf_net883
*453 clknet_1_0__leaf_net884
*454 clknet_1_0__leaf_net892
*455 clknet_1_0__leaf_net893
*456 clknet_1_0__leaf_net897
*457 clknet_1_0__leaf_net899
*458 clknet_1_0__leaf_net902
*459 clknet_1_0__leaf_net907
*460 clknet_1_0__leaf_net908
*461 clknet_1_0__leaf_net909
*462 clknet_1_0__leaf_net911
*463 clknet_1_0__leaf_net914
*464 clknet_1_0__leaf_net917
*465 clknet_1_0__leaf_net918
*466 clknet_1_0__leaf_net919
*467 clknet_1_0__leaf_net922
*468 clknet_1_0__leaf_net924
*469 clknet_1_0__leaf_net925
*470 clknet_1_0__leaf_net927
*471 clknet_1_0__leaf_net928
*472 clknet_1_0__leaf_net931
*473 clknet_1_0__leaf_net933
*474 clknet_1_0__leaf_net938
*475 clknet_1_0__leaf_net942
*476 clknet_1_0__leaf_net944
*477 clknet_1_0__leaf_net945
*478 clknet_1_0__leaf_net948
*479 clknet_1_0__leaf_net952
*480 clknet_1_0__leaf_net96
*481 clknet_1_0__leaf_net99
*482 clknet_1_1__leaf_net100
*483 clknet_1_1__leaf_net105
*484 clknet_1_1__leaf_net110
*485 clknet_1_1__leaf_net111
*486 clknet_1_1__leaf_net114
*487 clknet_1_1__leaf_net169
*488 clknet_1_1__leaf_net189
*489 clknet_1_1__leaf_net190
*490 clknet_1_1__leaf_net193
*491 clknet_1_1__leaf_net196
*492 clknet_1_1__leaf_net198
*493 clknet_1_1__leaf_net199
*494 clknet_1_1__leaf_net200
*495 clknet_1_1__leaf_net208
*496 clknet_1_1__leaf_net214
*497 clknet_1_1__leaf_net216
*498 clknet_1_1__leaf_net218
*499 clknet_1_1__leaf_net220
*500 clknet_1_1__leaf_net222
*501 clknet_1_1__leaf_net226
*502 clknet_1_1__leaf_net269
*503 clknet_1_1__leaf_net271
*504 clknet_1_1__leaf_net275
*505 clknet_1_1__leaf_net277
*506 clknet_1_1__leaf_net283
*507 clknet_1_1__leaf_net288
*508 clknet_1_1__leaf_net291
*509 clknet_1_1__leaf_net299
*510 clknet_1_1__leaf_net301
*511 clknet_1_1__leaf_net305
*512 clknet_1_1__leaf_net315
*513 clknet_1_1__leaf_net320
*514 clknet_1_1__leaf_net325
*515 clknet_1_1__leaf_net328
*516 clknet_1_1__leaf_net330
*517 clknet_1_1__leaf_net331
*518 clknet_1_1__leaf_net351
*519 clknet_1_1__leaf_net354
*520 clknet_1_1__leaf_net355
*521 clknet_1_1__leaf_net358
*522 clknet_1_1__leaf_net361
*523 clknet_1_1__leaf_net365
*524 clknet_1_1__leaf_net366
*525 clknet_1_1__leaf_net368
*526 clknet_1_1__leaf_net369
*527 clknet_1_1__leaf_net375
*528 clknet_1_1__leaf_net376
*529 clknet_1_1__leaf_net379
*530 clknet_1_1__leaf_net385
*531 clknet_1_1__leaf_net386
*532 clknet_1_1__leaf_net387
*533 clknet_1_1__leaf_net388
*534 clknet_1_1__leaf_net389
*535 clknet_1_1__leaf_net391
*536 clknet_1_1__leaf_net392
*537 clknet_1_1__leaf_net394
*538 clknet_1_1__leaf_net399
*539 clknet_1_1__leaf_net400
*540 clknet_1_1__leaf_net402
*541 clknet_1_1__leaf_net404
*542 clknet_1_1__leaf_net405
*543 clknet_1_1__leaf_net412
*544 clknet_1_1__leaf_net420
*545 clknet_1_1__leaf_net421
*546 clknet_1_1__leaf_net428
*547 clknet_1_1__leaf_net446
*548 clknet_1_1__leaf_net450
*549 clknet_1_1__leaf_net462
*550 clknet_1_1__leaf_net467
*551 clknet_1_1__leaf_net468
*552 clknet_1_1__leaf_net473
*553 clknet_1_1__leaf_net474
*554 clknet_1_1__leaf_net476
*555 clknet_1_1__leaf_net481
*556 clknet_1_1__leaf_net484
*557 clknet_1_1__leaf_net486
*558 clknet_1_1__leaf_net487
*559 clknet_1_1__leaf_net489
*560 clknet_1_1__leaf_net494
*561 clknet_1_1__leaf_net495
*562 clknet_1_1__leaf_net497
*563 clknet_1_1__leaf_net502
*564 clknet_1_1__leaf_net504
*565 clknet_1_1__leaf_net506
*566 clknet_1_1__leaf_net511
*567 clknet_1_1__leaf_net527
*568 clknet_1_1__leaf_net533
*569 clknet_1_1__leaf_net612
*570 clknet_1_1__leaf_net613
*571 clknet_1_1__leaf_net614
*572 clknet_1_1__leaf_net645
*573 clknet_1_1__leaf_net646
*574 clknet_1_1__leaf_net663
*575 clknet_1_1__leaf_net664
*576 clknet_1_1__leaf_net680
*577 clknet_1_1__leaf_net699
*578 clknet_1_1__leaf_net700
*579 clknet_1_1__leaf_net701
*580 clknet_1_1__leaf_net719
*581 clknet_1_1__leaf_net720
*582 clknet_1_1__leaf_net721
*583 clknet_1_1__leaf_net738
*584 clknet_1_1__leaf_net739
*585 clknet_1_1__leaf_net740
*586 clknet_1_1__leaf_net756
*587 clknet_1_1__leaf_net757
*588 clknet_1_1__leaf_net758
*589 clknet_1_1__leaf_net775
*590 clknet_1_1__leaf_net883
*591 clknet_1_1__leaf_net884
*592 clknet_1_1__leaf_net892
*593 clknet_1_1__leaf_net893
*594 clknet_1_1__leaf_net897
*595 clknet_1_1__leaf_net899
*596 clknet_1_1__leaf_net902
*597 clknet_1_1__leaf_net907
*598 clknet_1_1__leaf_net908
*599 clknet_1_1__leaf_net909
*600 clknet_1_1__leaf_net911
*601 clknet_1_1__leaf_net914
*602 clknet_1_1__leaf_net917
*603 clknet_1_1__leaf_net918
*604 clknet_1_1__leaf_net919
*605 clknet_1_1__leaf_net922
*606 clknet_1_1__leaf_net924
*607 clknet_1_1__leaf_net925
*608 clknet_1_1__leaf_net927
*609 clknet_1_1__leaf_net928
*610 clknet_1_1__leaf_net931
*611 clknet_1_1__leaf_net933
*612 clknet_1_1__leaf_net938
*613 clknet_1_1__leaf_net942
*614 clknet_1_1__leaf_net944
*615 clknet_1_1__leaf_net945
*616 clknet_1_1__leaf_net948
*617 clknet_1_1__leaf_net952
*618 clknet_1_1__leaf_net96
*619 clknet_1_1__leaf_net99
*620 clknet_4_0_0_clk
*621 clknet_4_10_0_clk
*622 clknet_4_11_0_clk
*623 clknet_4_12_0_clk
*624 clknet_4_13_0_clk
*625 clknet_4_14_0_clk
*626 clknet_4_15_0_clk
*627 clknet_4_1_0_clk
*628 clknet_4_2_0_clk
*629 clknet_4_3_0_clk
*630 clknet_4_4_0_clk
*631 clknet_4_5_0_clk
*632 clknet_4_6_0_clk
*633 clknet_4_7_0_clk
*634 clknet_4_8_0_clk
*635 clknet_4_9_0_clk
*636 net0
*637 net1
*638 net10
*639 net100
*640 net1000
*641 net1001
*642 net1002
*643 net1003
*644 net1004
*645 net1005
*646 net1006
*647 net1007
*648 net1008
*649 net1009
*650 net101
*651 net1010
*652 net1011
*653 net1012
*654 net1013
*655 net1014
*656 net1015
*657 net1016
*658 net1017
*659 net1018
*660 net1019
*661 net102
*662 net1020
*663 net1021
*664 net1022
*665 net1023
*666 net1024
*667 net1025
*668 net1026
*669 net1027
*670 net1028
*671 net1029
*672 net103
*673 net1030
*674 net1031
*675 net1032
*676 net1033
*677 net1034
*678 net1035
*679 net1036
*680 net1037
*681 net1038
*682 net1039
*683 net104
*684 net1040
*685 net1041
*686 net1042
*687 net1043
*688 net1044
*689 net1045
*690 net1046
*691 net1047
*692 net1048
*693 net1049
*694 net105
*695 net1050
*696 net1051
*697 net1052
*698 net1053
*699 net1054
*700 net1055
*701 net1056
*702 net1057
*703 net1058
*704 net1059
*705 net106
*706 net1060
*707 net1061
*708 net1062
*709 net1063
*710 net1064
*711 net1065
*712 net1066
*713 net1067
*714 net1068
*715 net1069
*716 net107
*717 net1070
*718 net1071
*719 net1072
*720 net1073
*721 net1074
*722 net1075
*723 net1076
*724 net1077
*725 net1078
*726 net1079
*727 net108
*728 net1080
*729 net1081
*730 net1082
*731 net1083
*732 net1084
*733 net1085
*734 net1086
*735 net1087
*736 net1088
*737 net1089
*738 net109
*739 net1090
*740 net11
*741 net110
*742 net111
*743 net112
*744 net113
*745 net114
*746 net115
*747 net116
*748 net117
*749 net118
*750 net119
*751 net12
*752 net120
*753 net121
*754 net122
*755 net123
*756 net124
*757 net125
*758 net126
*759 net127
*760 net128
*761 net129
*762 net13
*763 net130
*764 net131
*765 net132
*766 net133
*767 net134
*768 net135
*769 net136
*770 net137
*771 net138
*772 net139
*773 net14
*774 net140
*775 net141
*776 net142
*777 net143
*778 net144
*779 net145
*780 net146
*781 net147
*782 net148
*783 net149
*784 net15
*785 net150
*786 net151
*787 net152
*788 net153
*789 net154
*790 net155
*791 net156
*792 net157
*793 net158
*794 net159
*795 net16
*796 net160
*797 net161
*798 net162
*799 net163
*800 net164
*801 net165
*802 net166
*803 net167
*804 net168
*805 net169
*806 net17
*807 net170
*808 net171
*809 net172
*810 net173
*811 net174
*812 net175
*813 net176
*814 net177
*815 net178
*816 net179
*817 net18
*818 net180
*819 net181
*820 net182
*821 net183
*822 net184
*823 net185
*824 net186
*825 net187
*826 net188
*827 net189
*828 net19
*829 net190
*830 net191
*831 net192
*832 net193
*833 net194
*834 net195
*835 net196
*836 net197
*837 net198
*838 net199
*839 net2
*840 net20
*841 net200
*842 net201
*843 net202
*844 net203
*845 net204
*846 net205
*847 net206
*848 net207
*849 net208
*850 net209
*851 net21
*852 net210
*853 net211
*854 net212
*855 net213
*856 net214
*857 net215
*858 net216
*859 net217
*860 net218
*861 net219
*862 net22
*863 net220
*864 net221
*865 net222
*866 net223
*867 net224
*868 net225
*869 net226
*870 net227
*871 net228
*872 net229
*873 net23
*874 net230
*875 net231
*876 net232
*877 net233
*878 net234
*879 net235
*880 net236
*881 net237
*882 net238
*883 net239
*884 net24
*885 net240
*886 net241
*887 net242
*888 net243
*889 net244
*890 net245
*891 net246
*892 net247
*893 net248
*894 net249
*895 net25
*896 net250
*897 net251
*898 net252
*899 net253
*900 net254
*901 net255
*902 net256
*903 net257
*904 net258
*905 net259
*906 net26
*907 net260
*908 net261
*909 net262
*910 net263
*911 net264
*912 net265
*913 net266
*914 net267
*915 net268
*916 net269
*917 net27
*918 net270
*919 net271
*920 net272
*921 net273
*922 net274
*923 net275
*924 net276
*925 net277
*926 net278
*927 net279
*928 net28
*929 net280
*930 net281
*931 net282
*932 net283
*933 net284
*934 net285
*935 net286
*936 net287
*937 net288
*938 net289
*939 net29
*940 net290
*941 net291
*942 net292
*943 net293
*944 net294
*945 net295
*946 net296
*947 net297
*948 net298
*949 net299
*950 net3
*951 net30
*952 net300
*953 net301
*954 net302
*955 net303
*956 net304
*957 net305
*958 net306
*959 net307
*960 net308
*961 net309
*962 net31
*963 net310
*964 net311
*965 net312
*966 net313
*967 net314
*968 net315
*969 net316
*970 net317
*971 net318
*972 net319
*973 net32
*974 net320
*975 net321
*976 net322
*977 net323
*978 net324
*979 net325
*980 net326
*981 net327
*982 net328
*983 net329
*984 net33
*985 net330
*986 net331
*987 net332
*988 net333
*989 net334
*990 net335
*991 net336
*992 net337
*993 net338
*994 net339
*995 net34
*996 net340
*997 net341
*998 net342
*999 net343
*1000 net344
*1001 net345
*1002 net346
*1003 net347
*1004 net348
*1005 net349
*1006 net35
*1007 net350
*1008 net351
*1009 net352
*1010 net353
*1011 net354
*1012 net355
*1013 net356
*1014 net357
*1015 net358
*1016 net359
*1017 net36
*1018 net360
*1019 net361
*1020 net362
*1021 net363
*1022 net364
*1023 net365
*1024 net366
*1025 net367
*1026 net368
*1027 net369
*1028 net37
*1029 net370
*1030 net371
*1031 net372
*1032 net373
*1033 net374
*1034 net375
*1035 net376
*1036 net377
*1037 net378
*1038 net379
*1039 net38
*1040 net380
*1041 net381
*1042 net382
*1043 net383
*1044 net384
*1045 net385
*1046 net386
*1047 net387
*1048 net388
*1049 net389
*1050 net39
*1051 net390
*1052 net391
*1053 net392
*1054 net393
*1055 net394
*1056 net395
*1057 net396
*1058 net397
*1059 net398
*1060 net399
*1061 net4
*1062 net40
*1063 net400
*1064 net401
*1065 net402
*1066 net403
*1067 net404
*1068 net405
*1069 net406
*1070 net407
*1071 net408
*1072 net409
*1073 net41
*1074 net410
*1075 net411
*1076 net412
*1077 net413
*1078 net414
*1079 net415
*1080 net416
*1081 net417
*1082 net418
*1083 net419
*1084 net42
*1085 net420
*1086 net421
*1087 net422
*1088 net423
*1089 net424
*1090 net425
*1091 net426
*1092 net427
*1093 net428
*1094 net429
*1095 net43
*1096 net430
*1097 net431
*1098 net432
*1099 net433
*1100 net434
*1101 net435
*1102 net436
*1103 net437
*1104 net438
*1105 net439
*1106 net44
*1107 net440
*1108 net441
*1109 net442
*1110 net443
*1111 net444
*1112 net445
*1113 net446
*1114 net447
*1115 net448
*1116 net449
*1117 net45
*1118 net450
*1119 net451
*1120 net452
*1121 net453
*1122 net454
*1123 net455
*1124 net456
*1125 net457
*1126 net458
*1127 net459
*1128 net46
*1129 net460
*1130 net461
*1131 net462
*1132 net463
*1133 net464
*1134 net465
*1135 net466
*1136 net467
*1137 net468
*1138 net469
*1139 net47
*1140 net470
*1141 net471
*1142 net472
*1143 net473
*1144 net474
*1145 net475
*1146 net476
*1147 net477
*1148 net478
*1149 net479
*1150 net48
*1151 net480
*1152 net481
*1153 net482
*1154 net483
*1155 net484
*1156 net485
*1157 net486
*1158 net487
*1159 net488
*1160 net489
*1161 net49
*1162 net490
*1163 net491
*1164 net492
*1165 net493
*1166 net494
*1167 net495
*1168 net496
*1169 net497
*1170 net498
*1171 net499
*1172 net5
*1173 net50
*1174 net500
*1175 net501
*1176 net502
*1177 net503
*1178 net504
*1179 net505
*1180 net506
*1181 net507
*1182 net508
*1183 net509
*1184 net51
*1185 net510
*1186 net511
*1187 net512
*1188 net513
*1189 net514
*1190 net515
*1191 net516
*1192 net517
*1193 net518
*1194 net519
*1195 net52
*1196 net520
*1197 net521
*1198 net522
*1199 net523
*1200 net524
*1201 net525
*1202 net526
*1203 net527
*1204 net528
*1205 net529
*1206 net53
*1207 net530
*1208 net531
*1209 net532
*1210 net533
*1211 net534
*1212 net535
*1213 net536
*1214 net537
*1215 net538
*1216 net539
*1217 net54
*1218 net540
*1219 net541
*1220 net542
*1221 net543
*1222 net544
*1223 net545
*1224 net546
*1225 net547
*1226 net548
*1227 net549
*1228 net55
*1229 net550
*1230 net551
*1231 net552
*1232 net553
*1233 net554
*1234 net555
*1235 net556
*1236 net557
*1237 net558
*1238 net559
*1239 net56
*1240 net560
*1241 net561
*1242 net562
*1243 net563
*1244 net564
*1245 net565
*1246 net566
*1247 net567
*1248 net568
*1249 net569
*1250 net57
*1251 net570
*1252 net571
*1253 net572
*1254 net573
*1255 net574
*1256 net575
*1257 net576
*1258 net577
*1259 net578
*1260 net579
*1261 net58
*1262 net580
*1263 net581
*1264 net582
*1265 net583
*1266 net584
*1267 net585
*1268 net586
*1269 net587
*1270 net588
*1271 net589
*1272 net59
*1273 net590
*1274 net591
*1275 net592
*1276 net593
*1277 net594
*1278 net595
*1279 net596
*1280 net597
*1281 net598
*1282 net599
*1283 net6
*1284 net60
*1285 net600
*1286 net601
*1287 net602
*1288 net603
*1289 net604
*1290 net605
*1291 net606
*1292 net607
*1293 net608
*1294 net609
*1295 net61
*1296 net610
*1297 net611
*1298 net612
*1299 net613
*1300 net614
*1301 net615
*1302 net616
*1303 net617
*1304 net618
*1305 net619
*1306 net62
*1307 net620
*1308 net621
*1309 net622
*1310 net623
*1311 net624
*1312 net625
*1313 net626
*1314 net627
*1315 net628
*1316 net629
*1317 net63
*1318 net630
*1319 net631
*1320 net632
*1321 net633
*1322 net634
*1323 net635
*1324 net636
*1325 net637
*1326 net638
*1327 net639
*1328 net64
*1329 net640
*1330 net641
*1331 net642
*1332 net643
*1333 net644
*1334 net645
*1335 net646
*1336 net647
*1337 net648
*1338 net649
*1339 net65
*1340 net650
*1341 net651
*1342 net652
*1343 net653
*1344 net654
*1345 net655
*1346 net656
*1347 net657
*1348 net658
*1349 net659
*1350 net66
*1351 net660
*1352 net661
*1353 net662
*1354 net663
*1355 net664
*1356 net665
*1357 net666
*1358 net667
*1359 net668
*1360 net669
*1361 net67
*1362 net670
*1363 net671
*1364 net672
*1365 net673
*1366 net674
*1367 net675
*1368 net676
*1369 net677
*1370 net678
*1371 net679
*1372 net68
*1373 net680
*1374 net681
*1375 net682
*1376 net683
*1377 net684
*1378 net685
*1379 net686
*1380 net687
*1381 net688
*1382 net689
*1383 net69
*1384 net690
*1385 net691
*1386 net692
*1387 net693
*1388 net694
*1389 net695
*1390 net696
*1391 net697
*1392 net698
*1393 net699
*1394 net7
*1395 net70
*1396 net700
*1397 net701
*1398 net702
*1399 net703
*1400 net704
*1401 net705
*1402 net706
*1403 net707
*1404 net708
*1405 net709
*1406 net71
*1407 net710
*1408 net711
*1409 net712
*1410 net713
*1411 net714
*1412 net715
*1413 net716
*1414 net717
*1415 net718
*1416 net719
*1417 net72
*1418 net720
*1419 net721
*1420 net722
*1421 net723
*1422 net724
*1423 net725
*1424 net726
*1425 net727
*1426 net728
*1427 net729
*1428 net73
*1429 net730
*1430 net731
*1431 net732
*1432 net733
*1433 net734
*1434 net735
*1435 net736
*1436 net737
*1437 net738
*1438 net739
*1439 net74
*1440 net740
*1441 net741
*1442 net742
*1443 net743
*1444 net744
*1445 net745
*1446 net746
*1447 net747
*1448 net748
*1449 net749
*1450 net75
*1451 net750
*1452 net751
*1453 net752
*1454 net753
*1455 net754
*1456 net755
*1457 net756
*1458 net757
*1459 net758
*1460 net759
*1461 net76
*1462 net760
*1463 net761
*1464 net762
*1465 net763
*1466 net764
*1467 net765
*1468 net766
*1469 net767
*1470 net768
*1471 net769
*1472 net77
*1473 net770
*1474 net771
*1475 net772
*1476 net773
*1477 net774
*1478 net775
*1479 net776
*1480 net777
*1481 net778
*1482 net779
*1483 net78
*1484 net780
*1485 net781
*1486 net782
*1487 net783
*1488 net784
*1489 net785
*1490 net786
*1491 net787
*1492 net788
*1493 net789
*1494 net79
*1495 net790
*1496 net791
*1497 net792
*1498 net793
*1499 net794
*1500 net795
*1501 net796
*1502 net797
*1503 net798
*1504 net799
*1505 net8
*1506 net80
*1507 net800
*1508 net801
*1509 net802
*1510 net803
*1511 net804
*1512 net805
*1513 net806
*1514 net807
*1515 net808
*1516 net809
*1517 net81
*1518 net810
*1519 net811
*1520 net812
*1521 net813
*1522 net814
*1523 net815
*1524 net816
*1525 net817
*1526 net818
*1527 net819
*1528 net82
*1529 net820
*1530 net821
*1531 net822
*1532 net823
*1533 net824
*1534 net825
*1535 net826
*1536 net827
*1537 net828
*1538 net829
*1539 net83
*1540 net830
*1541 net831
*1542 net832
*1543 net833
*1544 net834
*1545 net835
*1546 net836
*1547 net837
*1548 net838
*1549 net839
*1550 net84
*1551 net840
*1552 net841
*1553 net842
*1554 net843
*1555 net844
*1556 net845
*1557 net846
*1558 net847
*1559 net848
*1560 net849
*1561 net85
*1562 net850
*1563 net851
*1564 net852
*1565 net853
*1566 net854
*1567 net855
*1568 net856
*1569 net857
*1570 net858
*1571 net859
*1572 net86
*1573 net860
*1574 net861
*1575 net862
*1576 net863
*1577 net864
*1578 net865
*1579 net866
*1580 net867
*1581 net868
*1582 net869
*1583 net87
*1584 net870
*1585 net871
*1586 net872
*1587 net873
*1588 net874
*1589 net875
*1590 net876
*1591 net877
*1592 net878
*1593 net879
*1594 net88
*1595 net880
*1596 net881
*1597 net882
*1598 net883
*1599 net884
*1600 net885
*1601 net886
*1602 net887
*1603 net888
*1604 net889
*1605 net89
*1606 net890
*1607 net891
*1608 net892
*1609 net893
*1610 net894
*1611 net895
*1612 net896
*1613 net897
*1614 net898
*1615 net899
*1616 net9
*1617 net90
*1618 net900
*1619 net901
*1620 net902
*1621 net903
*1622 net904
*1623 net905
*1624 net906
*1625 net907
*1626 net908
*1627 net909
*1628 net91
*1629 net910
*1630 net911
*1631 net912
*1632 net913
*1633 net914
*1634 net915
*1635 net916
*1636 net917
*1637 net918
*1638 net919
*1639 net92
*1640 net920
*1641 net921
*1642 net922
*1643 net923
*1644 net924
*1645 net925
*1646 net926
*1647 net927
*1648 net928
*1649 net929
*1650 net93
*1651 net930
*1652 net931
*1653 net932
*1654 net933
*1655 net934
*1656 net935
*1657 net936
*1658 net937
*1659 net938
*1660 net939
*1661 net94
*1662 net940
*1663 net941
*1664 net942
*1665 net943
*1666 net944
*1667 net945
*1668 net946
*1669 net947
*1670 net948
*1671 net949
*1672 net95
*1673 net950
*1674 net951
*1675 net952
*1676 net953
*1677 net954
*1678 net955
*1679 net956
*1680 net957
*1681 net958
*1682 net959
*1683 net96
*1684 net960
*1685 net961
*1686 net962
*1687 net963
*1688 net964
*1689 net965
*1690 net966
*1691 net967
*1692 net968
*1693 net969
*1694 net97
*1695 net970
*1696 net971
*1697 net972
*1698 net973
*1699 net974
*1700 net975
*1701 net976
*1702 net977
*1703 net978
*1704 net979
*1705 net98
*1706 net980
*1707 net981
*1708 net982
*1709 net983
*1710 net984
*1711 net985
*1712 net986
*1713 net987
*1714 net988
*1715 net989
*1716 net99
*1717 net990
*1718 net991
*1719 net992
*1720 net993
*1721 net994
*1722 net995
*1723 net996
*1724 net997
*1725 net998
*1726 net999
*1727 ANTENNA_1
*1728 ANTENNA_c100_A0
*1729 ANTENNA_c100_A3
*1730 ANTENNA_c100_S0
*1731 ANTENNA_c100_S1
*1732 ANTENNA_c101_A1
*1733 ANTENNA_c101_A2
*1734 ANTENNA_c101_A3
*1735 ANTENNA_c101_S0
*1736 ANTENNA_c101_S1
*1737 ANTENNA_c102_A2
*1738 ANTENNA_c103_A2
*1739 ANTENNA_c103_S1
*1740 ANTENNA_c103_X
*1741 ANTENNA_c104_S0
*1742 ANTENNA_c104_X
*1743 ANTENNA_c105_A3
*1744 ANTENNA_c105_S1
*1745 ANTENNA_c106_A3
*1746 ANTENNA_c106_X
*1747 ANTENNA_c107_A3
*1748 ANTENNA_c107_S0
*1749 ANTENNA_c107_S1
*1750 ANTENNA_c108_A1
*1751 ANTENNA_c108_S1
*1752 ANTENNA_c109_A2
*1753 ANTENNA_c109_A3
*1754 ANTENNA_c109_S1
*1755 ANTENNA_c109_X
*1756 ANTENNA_c110_A2
*1757 ANTENNA_c110_B1
*1758 ANTENNA_c111_A1
*1759 ANTENNA_c111_A4
*1760 ANTENNA_c111_B1
*1761 ANTENNA_c112_A3
*1762 ANTENNA_c112_B1
*1763 ANTENNA_c115_A2
*1764 ANTENNA_c117_A2
*1765 ANTENNA_c118_A2
*1766 ANTENNA_c118_B1
*1767 ANTENNA_c119_A4
*1768 ANTENNA_c120_S0
*1769 ANTENNA_c120_S1
*1770 ANTENNA_c121_A3
*1771 ANTENNA_c123_A2
*1772 ANTENNA_c126_A2
*1773 ANTENNA_c128_A2
*1774 ANTENNA_c128_A3
*1775 ANTENNA_c128_S0
*1776 ANTENNA_c130_S0
*1777 ANTENNA_c132_A1
*1778 ANTENNA_c132_X
*1779 ANTENNA_c133_A1
*1780 ANTENNA_c133_A2
*1781 ANTENNA_c133_A3
*1782 ANTENNA_c133_B1
*1783 ANTENNA_c133_X
*1784 ANTENNA_c134_A1
*1785 ANTENNA_c134_A2
*1786 ANTENNA_c134_B1
*1787 ANTENNA_c134_X
*1788 ANTENNA_c135_S0
*1789 ANTENNA_c135_S1
*1790 ANTENNA_c135_X
*1791 ANTENNA_c136_A1
*1792 ANTENNA_c136_A2
*1793 ANTENNA_c136_A4
*1794 ANTENNA_c136_B1
*1795 ANTENNA_c136_X
*1796 ANTENNA_c137_A1
*1797 ANTENNA_c137_A2
*1798 ANTENNA_c137_A3
*1799 ANTENNA_c137_B1
*1800 ANTENNA_c137_X
*1801 ANTENNA_c138_A1
*1802 ANTENNA_c138_A3
*1803 ANTENNA_c138_A4
*1804 ANTENNA_c138_B1
*1805 ANTENNA_c138_X
*1806 ANTENNA_c139_A3
*1807 ANTENNA_c139_A4
*1808 ANTENNA_c139_B1
*1809 ANTENNA_c140_A1
*1810 ANTENNA_c140_A3
*1811 ANTENNA_c140_S0
*1812 ANTENNA_c140_S1
*1813 ANTENNA_c141_A2
*1814 ANTENNA_c141_B1
*1815 ANTENNA_c142_A3
*1816 ANTENNA_c142_A4
*1817 ANTENNA_c142_B1
*1818 ANTENNA_c143_A1
*1819 ANTENNA_c143_A4
*1820 ANTENNA_c143_X
*1821 ANTENNA_c144_A0
*1822 ANTENNA_c144_A2
*1823 ANTENNA_c144_A3
*1824 ANTENNA_c144_X
*1825 ANTENNA_c145_A4
*1826 ANTENNA_c146_A1
*1827 ANTENNA_c146_A2
*1828 ANTENNA_c146_X
*1829 ANTENNA_c147_A1
*1830 ANTENNA_c147_A2
*1831 ANTENNA_c147_S0
*1832 ANTENNA_c148_A3
*1833 ANTENNA_c148_S0
*1834 ANTENNA_c148_S1
*1835 ANTENNA_c149_A1
*1836 ANTENNA_c149_A2
*1837 ANTENNA_c149_A3
*1838 ANTENNA_c149_S0
*1839 ANTENNA_c150_S0
*1840 ANTENNA_c150_S1
*1841 ANTENNA_c150_X
*1842 ANTENNA_c151_A0
*1843 ANTENNA_c151_S0
*1844 ANTENNA_c151_X