*SPEF "ieee 1481-1999"
*DESIGN "netlist_1"
*DATE "01:14:06 Wednesday August 07, 2024"
*VENDOR "The OpenROAD Project"
*PROGRAM "OpenROAD"
*VERSION "d423155d69de7f683a23f6916ead418a615ad4ad"
*DESIGN_FLOW "NAME_SCOPE LOCAL" "PIN_CAP NONE"
*DIVIDER /
*DELIMITER :
*BUS_DELIMITER []
*T_UNIT 1 NS
*C_UNIT 1 PF
*R_UNIT 1 OHM
*L_UNIT 1 HENRY

*NAME_MAP
*3 clk
*4 in0
*5 in1
*6 in10
*7 in11
*8 in12
*9 in13
*10 in14
*11 in15
*12 in16
*13 in17
*14 in18
*15 in19
*16 in2
*17 in20
*18 in21
*19 in22
*20 in23
*21 in24
*22 in25
*23 in26
*24 in27
*25 in28
*26 in29
*27 in3
*28 in30
*29 in31
*30 in32
*31 in33
*32 in34
*33 in35
*34 in36
*35 in37
*36 in38
*37 in39
*38 in4
*39 in40
*40 in41
*41 in42
*42 in43
*43 in44
*44 in45
*45 in46
*46 in47
*47 in48
*48 in49
*49 in5
*50 in50
*51 in51
*52 in52
*53 in53
*54 in54
*55 in55
*56 in56
*57 in57
*58 in58
*59 in59
*60 in6
*61 in60
*62 in61
*63 in7
*64 in8
*65 in9
*66 out0
*67 out1
*68 out10
*69 out11
*70 out12
*71 out13
*72 out14
*73 out15
*74 out16
*75 out17
*76 out18
*77 out19
*78 out2
*79 out20
*80 out21
*81 out22
*82 out23
*83 out24
*84 out25
*85 out26
*86 out27
*87 out28
*88 out29
*89 out3
*90 out30
*91 out31
*92 out32
*93 out33
*94 out34
*95 out35
*96 out36
*97 out37
*98 out38
*99 out39
*100 out4
*101 out40
*102 out41
*103 out42
*104 out43
*105 out44
*106 out45
*107 out46
*108 out47
*109 out48
*110 out49
*111 out5
*112 out50
*113 out51
*114 out52
*115 out53
*116 out54
*117 out55
*118 out56
*119 out57
*120 out58
*121 out59
*122 out6
*123 out60
*124 out61
*125 out7
*126 out8
*127 out9
*128 rst
*129 clknet_0_clk
*130 clknet_0_net117
*131 clknet_0_net118
*132 clknet_0_net119
*133 clknet_0_net128
*134 clknet_0_net133
*135 clknet_0_net134
*136 clknet_0_net157
*137 clknet_0_net158
*138 clknet_0_net166
*139 clknet_0_net168
*140 clknet_0_net169
*141 clknet_0_net175
*142 clknet_0_net176
*143 clknet_0_net180
*144 clknet_0_net192
*145 clknet_0_net238
*146 clknet_0_net239
*147 clknet_0_net251
*148 clknet_0_net256
*149 clknet_0_net257
*150 clknet_0_net270
*151 clknet_0_net288
*152 clknet_0_net289
*153 clknet_0_net290
*154 clknet_0_net291
*155 clknet_0_net292
*156 clknet_0_net294
*157 clknet_0_net295
*158 clknet_0_net296
*159 clknet_0_net297
*160 clknet_0_net299
*161 clknet_0_net302
*162 clknet_0_net303
*163 clknet_0_net305
*164 clknet_0_net306
*165 clknet_0_net307
*166 clknet_0_net308
*167 clknet_0_net310
*168 clknet_0_net311
*169 clknet_0_net312
*170 clknet_0_net314
*171 clknet_0_net317
*172 clknet_0_net341
*173 clknet_0_net342
*174 clknet_0_net346
*175 clknet_0_net347
*176 clknet_0_net349
*177 clknet_0_net350
*178 clknet_0_net351
*179 clknet_0_net352
*180 clknet_0_net353
*181 clknet_0_net354
*182 clknet_0_net355
*183 clknet_0_net356
*184 clknet_0_net357
*185 clknet_0_net358
*186 clknet_0_net359
*187 clknet_0_net360
*188 clknet_0_net361
*189 clknet_0_net362
*190 clknet_0_net363
*191 clknet_0_net367
*192 clknet_0_net368
*193 clknet_0_net371
*194 clknet_0_net372
*195 clknet_0_net373
*196 clknet_0_net375
*197 clknet_0_net376
*198 clknet_0_net380
*199 clknet_0_net381
*200 clknet_0_net386
*201 clknet_0_net394
*202 clknet_0_net395
*203 clknet_0_net396
*204 clknet_0_net397
*205 clknet_0_net398
*206 clknet_0_net399
*207 clknet_0_net400
*208 clknet_0_net401
*209 clknet_0_net402
*210 clknet_0_net403
*211 clknet_0_net404
*212 clknet_0_net406
*213 clknet_0_net407
*214 clknet_0_net408
*215 clknet_0_net410
*216 clknet_0_net411
*217 clknet_0_net412
*218 clknet_0_net415
*219 clknet_0_net430
*220 clknet_0_net434
*221 clknet_0_net435
*222 clknet_0_net436
*223 clknet_0_net437
*224 clknet_0_net438
*225 clknet_0_net439
*226 clknet_0_net440
*227 clknet_0_net441
*228 clknet_0_net442
*229 clknet_0_net443
*230 clknet_0_net444
*231 clknet_0_net445
*232 clknet_0_net446
*233 clknet_0_net447
*234 clknet_0_net449
*235 clknet_0_net450
*236 clknet_0_net460
*237 clknet_0_net461
*238 clknet_0_net462
*239 clknet_0_net463
*240 clknet_0_net467
*241 clknet_0_net468
*242 clknet_0_net528
*243 clknet_0_net541
*244 clknet_0_net549
*245 clknet_0_net550
*246 clknet_0_net551
*247 clknet_0_net552
*248 clknet_0_net553
*249 clknet_0_net554
*250 clknet_0_net555
*251 clknet_0_net556
*252 clknet_0_net557
*253 clknet_0_net558
*254 clknet_0_net559
*255 clknet_0_net560
*256 clknet_0_net561
*257 clknet_0_net562
*258 clknet_0_net563
*259 clknet_0_net566
*260 clknet_0_net567
*261 clknet_0_net572
*262 clknet_0_net573
*263 clknet_0_net574
*264 clknet_0_net575
*265 clknet_0_net576
*266 clknet_0_net589
*267 clknet_0_net590
*268 clknet_0_net591
*269 clknet_0_net597
*270 clknet_0_net600
*271 clknet_0_net603
*272 clknet_0_net604
*273 clknet_0_net606
*274 clknet_0_net607
*275 clknet_0_net608
*276 clknet_0_net609
*277 clknet_0_net621
*278 clknet_0_net622
*279 clknet_0_net623
*280 clknet_0_net624
*281 clknet_0_net625
*282 clknet_0_net626
*283 clknet_0_net629
*284 clknet_0_net630
*285 clknet_0_net631
*286 clknet_0_net632
*287 clknet_0_net633
*288 clknet_0_net634
*289 clknet_0_net635
*290 clknet_0_net636
*291 clknet_0_net644
*292 clknet_0_net645
*293 clknet_0_net646
*294 clknet_0_net651
*295 clknet_0_net653
*296 clknet_0_net654
*297 clknet_0_net655
*298 clknet_0_net668
*299 clknet_0_net735
*300 clknet_0_net736
*301 clknet_0_net737
*302 clknet_0_net767
*303 clknet_0_net768
*304 clknet_0_net769
*305 clknet_0_net786
*306 clknet_0_net787
*307 clknet_0_net788
*308 clknet_0_net806
*309 clknet_0_net807
*310 clknet_0_net808
*311 clknet_0_net825
*312 clknet_0_net826
*313 clknet_0_net827
*314 clknet_0_net910
*315 clknet_1_0__leaf_net117
*316 clknet_1_0__leaf_net118
*317 clknet_1_0__leaf_net119
*318 clknet_1_0__leaf_net128
*319 clknet_1_0__leaf_net133
*320 clknet_1_0__leaf_net134
*321 clknet_1_0__leaf_net157
*322 clknet_1_0__leaf_net158
*323 clknet_1_0__leaf_net166
*324 clknet_1_0__leaf_net168
*325 clknet_1_0__leaf_net169
*326 clknet_1_0__leaf_net175
*327 clknet_1_0__leaf_net176
*328 clknet_1_0__leaf_net180
*329 clknet_1_0__leaf_net192
*330 clknet_1_0__leaf_net238
*331 clknet_1_0__leaf_net239
*332 clknet_1_0__leaf_net251
*333 clknet_1_0__leaf_net256
*334 clknet_1_0__leaf_net257
*335 clknet_1_0__leaf_net270
*336 clknet_1_0__leaf_net288
*337 clknet_1_0__leaf_net289
*338 clknet_1_0__leaf_net290
*339 clknet_1_0__leaf_net291
*340 clknet_1_0__leaf_net292
*341 clknet_1_0__leaf_net294
*342 clknet_1_0__leaf_net295
*343 clknet_1_0__leaf_net296
*344 clknet_1_0__leaf_net297
*345 clknet_1_0__leaf_net299
*346 clknet_1_0__leaf_net302
*347 clknet_1_0__leaf_net303
*348 clknet_1_0__leaf_net305
*349 clknet_1_0__leaf_net306
*350 clknet_1_0__leaf_net307
*351 clknet_1_0__leaf_net308
*352 clknet_1_0__leaf_net310
*353 clknet_1_0__leaf_net311
*354 clknet_1_0__leaf_net312
*355 clknet_1_0__leaf_net314
*356 clknet_1_0__leaf_net317
*357 clknet_1_0__leaf_net341
*358 clknet_1_0__leaf_net342
*359 clknet_1_0__leaf_net346
*360 clknet_1_0__leaf_net347
*361 clknet_1_0__leaf_net349
*362 clknet_1_0__leaf_net350
*363 clknet_1_0__leaf_net351
*364 clknet_1_0__leaf_net352
*365 clknet_1_0__leaf_net353
*366 clknet_1_0__leaf_net354
*367 clknet_1_0__leaf_net355
*368 clknet_1_0__leaf_net356
*369 clknet_1_0__leaf_net357
*370 clknet_1_0__leaf_net358
*371 clknet_1_0__leaf_net359
*372 clknet_1_0__leaf_net360
*373 clknet_1_0__leaf_net361
*374 clknet_1_0__leaf_net362
*375 clknet_1_0__leaf_net363
*376 clknet_1_0__leaf_net367
*377 clknet_1_0__leaf_net368
*378 clknet_1_0__leaf_net371
*379 clknet_1_0__leaf_net372
*380 clknet_1_0__leaf_net373
*381 clknet_1_0__leaf_net375
*382 clknet_1_0__leaf_net376
*383 clknet_1_0__leaf_net380
*384 clknet_1_0__leaf_net381
*385 clknet_1_0__leaf_net386
*386 clknet_1_0__leaf_net394
*387 clknet_1_0__leaf_net395
*388 clknet_1_0__leaf_net396
*389 clknet_1_0__leaf_net397
*390 clknet_1_0__leaf_net398
*391 clknet_1_0__leaf_net399
*392 clknet_1_0__leaf_net400
*393 clknet_1_0__leaf_net401
*394 clknet_1_0__leaf_net402
*395 clknet_1_0__leaf_net403
*396 clknet_1_0__leaf_net404
*397 clknet_1_0__leaf_net406
*398 clknet_1_0__leaf_net407
*399 clknet_1_0__leaf_net408
*400 clknet_1_0__leaf_net410
*401 clknet_1_0__leaf_net411
*402 clknet_1_0__leaf_net412
*403 clknet_1_0__leaf_net415
*404 clknet_1_0__leaf_net430
*405 clknet_1_0__leaf_net434
*406 clknet_1_0__leaf_net435
*407 clknet_1_0__leaf_net436
*408 clknet_1_0__leaf_net437
*409 clknet_1_0__leaf_net438
*410 clknet_1_0__leaf_net439
*411 clknet_1_0__leaf_net440
*412 clknet_1_0__leaf_net441
*413 clknet_1_0__leaf_net442
*414 clknet_1_0__leaf_net443
*415 clknet_1_0__leaf_net444
*416 clknet_1_0__leaf_net445
*417 clknet_1_0__leaf_net446
*418 clknet_1_0__leaf_net447
*419 clknet_1_0__leaf_net449
*420 clknet_1_0__leaf_net450
*421 clknet_1_0__leaf_net460
*422 clknet_1_0__leaf_net461
*423 clknet_1_0__leaf_net462
*424 clknet_1_0__leaf_net463
*425 clknet_1_0__leaf_net467
*426 clknet_1_0__leaf_net468
*427 clknet_1_0__leaf_net528
*428 clknet_1_0__leaf_net541
*429 clknet_1_0__leaf_net549
*430 clknet_1_0__leaf_net550
*431 clknet_1_0__leaf_net551
*432 clknet_1_0__leaf_net552
*433 clknet_1_0__leaf_net553
*434 clknet_1_0__leaf_net554
*435 clknet_1_0__leaf_net555
*436 clknet_1_0__leaf_net556
*437 clknet_1_0__leaf_net557
*438 clknet_1_0__leaf_net558
*439 clknet_1_0__leaf_net559
*440 clknet_1_0__leaf_net560
*441 clknet_1_0__leaf_net561
*442 clknet_1_0__leaf_net562
*443 clknet_1_0__leaf_net563
*444 clknet_1_0__leaf_net566
*445 clknet_1_0__leaf_net567
*446 clknet_1_0__leaf_net572
*447 clknet_1_0__leaf_net573
*448 clknet_1_0__leaf_net574
*449 clknet_1_0__leaf_net575
*450 clknet_1_0__leaf_net576
*451 clknet_1_0__leaf_net589
*452 clknet_1_0__leaf_net590
*453 clknet_1_0__leaf_net591
*454 clknet_1_0__leaf_net597
*455 clknet_1_0__leaf_net600
*456 clknet_1_0__leaf_net603
*457 clknet_1_0__leaf_net604
*458 clknet_1_0__leaf_net606
*459 clknet_1_0__leaf_net607
*460 clknet_1_0__leaf_net608
*461 clknet_1_0__leaf_net609
*462 clknet_1_0__leaf_net621
*463 clknet_1_0__leaf_net622
*464 clknet_1_0__leaf_net623
*465 clknet_1_0__leaf_net624
*466 clknet_1_0__leaf_net625
*467 clknet_1_0__leaf_net626
*468 clknet_1_0__leaf_net629
*469 clknet_1_0__leaf_net630
*470 clknet_1_0__leaf_net631
*471 clknet_1_0__leaf_net632
*472 clknet_1_0__leaf_net633
*473 clknet_1_0__leaf_net634
*474 clknet_1_0__leaf_net635
*475 clknet_1_0__leaf_net636
*476 clknet_1_0__leaf_net644
*477 clknet_1_0__leaf_net645
*478 clknet_1_0__leaf_net646
*479 clknet_1_0__leaf_net651
*480 clknet_1_0__leaf_net653
*481 clknet_1_0__leaf_net654
*482 clknet_1_0__leaf_net655
*483 clknet_1_0__leaf_net668
*484 clknet_1_0__leaf_net735
*485 clknet_1_0__leaf_net736
*486 clknet_1_0__leaf_net737
*487 clknet_1_0__leaf_net767
*488 clknet_1_0__leaf_net768
*489 clknet_1_0__leaf_net769
*490 clknet_1_0__leaf_net786
*491 clknet_1_0__leaf_net787
*492 clknet_1_0__leaf_net788
*493 clknet_1_0__leaf_net806
*494 clknet_1_0__leaf_net807
*495 clknet_1_0__leaf_net808
*496 clknet_1_0__leaf_net825
*497 clknet_1_0__leaf_net826
*498 clknet_1_0__leaf_net827
*499 clknet_1_0__leaf_net910
*500 clknet_1_1__leaf_net117
*501 clknet_1_1__leaf_net118
*502 clknet_1_1__leaf_net119
*503 clknet_1_1__leaf_net128
*504 clknet_1_1__leaf_net133
*505 clknet_1_1__leaf_net134
*506 clknet_1_1__leaf_net157
*507 clknet_1_1__leaf_net158
*508 clknet_1_1__leaf_net166
*509 clknet_1_1__leaf_net168
*510 clknet_1_1__leaf_net169
*511 clknet_1_1__leaf_net175
*512 clknet_1_1__leaf_net176
*513 clknet_1_1__leaf_net180
*514 clknet_1_1__leaf_net192
*515 clknet_1_1__leaf_net238
*516 clknet_1_1__leaf_net239
*517 clknet_1_1__leaf_net251
*518 clknet_1_1__leaf_net256
*519 clknet_1_1__leaf_net257
*520 clknet_1_1__leaf_net270
*521 clknet_1_1__leaf_net288
*522 clknet_1_1__leaf_net289
*523 clknet_1_1__leaf_net290
*524 clknet_1_1__leaf_net291
*525 clknet_1_1__leaf_net292
*526 clknet_1_1__leaf_net294
*527 clknet_1_1__leaf_net295
*528 clknet_1_1__leaf_net296
*529 clknet_1_1__leaf_net297
*530 clknet_1_1__leaf_net299
*531 clknet_1_1__leaf_net302
*532 clknet_1_1__leaf_net303
*533 clknet_1_1__leaf_net305
*534 clknet_1_1__leaf_net306
*535 clknet_1_1__leaf_net307
*536 clknet_1_1__leaf_net308
*537 clknet_1_1__leaf_net310
*538 clknet_1_1__leaf_net311
*539 clknet_1_1__leaf_net312
*540 clknet_1_1__leaf_net314
*541 clknet_1_1__leaf_net317
*542 clknet_1_1__leaf_net341
*543 clknet_1_1__leaf_net342
*544 clknet_1_1__leaf_net346
*545 clknet_1_1__leaf_net347
*546 clknet_1_1__leaf_net349
*547 clknet_1_1__leaf_net350
*548 clknet_1_1__leaf_net351
*549 clknet_1_1__leaf_net352
*550 clknet_1_1__leaf_net353
*551 clknet_1_1__leaf_net354
*552 clknet_1_1__leaf_net355
*553 clknet_1_1__leaf_net356
*554 clknet_1_1__leaf_net357
*555 clknet_1_1__leaf_net358
*556 clknet_1_1__leaf_net359
*557 clknet_1_1__leaf_net360
*558 clknet_1_1__leaf_net361
*559 clknet_1_1__leaf_net362
*560 clknet_1_1__leaf_net363
*561 clknet_1_1__leaf_net367
*562 clknet_1_1__leaf_net368
*563 clknet_1_1__leaf_net371
*564 clknet_1_1__leaf_net372
*565 clknet_1_1__leaf_net373
*566 clknet_1_1__leaf_net375
*567 clknet_1_1__leaf_net376
*568 clknet_1_1__leaf_net380
*569 clknet_1_1__leaf_net381
*570 clknet_1_1__leaf_net386
*571 clknet_1_1__leaf_net394
*572 clknet_1_1__leaf_net395
*573 clknet_1_1__leaf_net396
*574 clknet_1_1__leaf_net397
*575 clknet_1_1__leaf_net398
*576 clknet_1_1__leaf_net399
*577 clknet_1_1__leaf_net400
*578 clknet_1_1__leaf_net401
*579 clknet_1_1__leaf_net402
*580 clknet_1_1__leaf_net403
*581 clknet_1_1__leaf_net404
*582 clknet_1_1__leaf_net406
*583 clknet_1_1__leaf_net407
*584 clknet_1_1__leaf_net408
*585 clknet_1_1__leaf_net410
*586 clknet_1_1__leaf_net411
*587 clknet_1_1__leaf_net412
*588 clknet_1_1__leaf_net415
*589 clknet_1_1__leaf_net430
*590 clknet_1_1__leaf_net434
*591 clknet_1_1__leaf_net435
*592 clknet_1_1__leaf_net436
*593 clknet_1_1__leaf_net437
*594 clknet_1_1__leaf_net438
*595 clknet_1_1__leaf_net439
*596 clknet_1_1__leaf_net440
*597 clknet_1_1__leaf_net441
*598 clknet_1_1__leaf_net442
*599 clknet_1_1__leaf_net443
*600 clknet_1_1__leaf_net444
*601 clknet_1_1__leaf_net445
*602 clknet_1_1__leaf_net446
*603 clknet_1_1__leaf_net447
*604 clknet_1_1__leaf_net449
*605 clknet_1_1__leaf_net450
*606 clknet_1_1__leaf_net460
*607 clknet_1_1__leaf_net461
*608 clknet_1_1__leaf_net462
*609 clknet_1_1__leaf_net463
*610 clknet_1_1__leaf_net467
*611 clknet_1_1__leaf_net468
*612 clknet_1_1__leaf_net528
*613 clknet_1_1__leaf_net541
*614 clknet_1_1__leaf_net549
*615 clknet_1_1__leaf_net550
*616 clknet_1_1__leaf_net551
*617 clknet_1_1__leaf_net552
*618 clknet_1_1__leaf_net553
*619 clknet_1_1__leaf_net554
*620 clknet_1_1__leaf_net555
*621 clknet_1_1__leaf_net556
*622 clknet_1_1__leaf_net557
*623 clknet_1_1__leaf_net558
*624 clknet_1_1__leaf_net559
*625 clknet_1_1__leaf_net560
*626 clknet_1_1__leaf_net561
*627 clknet_1_1__leaf_net562
*628 clknet_1_1__leaf_net563
*629 clknet_1_1__leaf_net566
*630 clknet_1_1__leaf_net567
*631 clknet_1_1__leaf_net572
*632 clknet_1_1__leaf_net573
*633 clknet_1_1__leaf_net574
*634 clknet_1_1__leaf_net575
*635 clknet_1_1__leaf_net576
*636 clknet_1_1__leaf_net589
*637 clknet_1_1__leaf_net590
*638 clknet_1_1__leaf_net591
*639 clknet_1_1__leaf_net597
*640 clknet_1_1__leaf_net600
*641 clknet_1_1__leaf_net603
*642 clknet_1_1__leaf_net604
*643 clknet_1_1__leaf_net606
*644 clknet_1_1__leaf_net607
*645 clknet_1_1__leaf_net608
*646 clknet_1_1__leaf_net609
*647 clknet_1_1__leaf_net621
*648 clknet_1_1__leaf_net622
*649 clknet_1_1__leaf_net623
*650 clknet_1_1__leaf_net624
*651 clknet_1_1__leaf_net625
*652 clknet_1_1__leaf_net626
*653 clknet_1_1__leaf_net629
*654 clknet_1_1__leaf_net630
*655 clknet_1_1__leaf_net631
*656 clknet_1_1__leaf_net632
*657 clknet_1_1__leaf_net633
*658 clknet_1_1__leaf_net634
*659 clknet_1_1__leaf_net635
*660 clknet_1_1__leaf_net636
*661 clknet_1_1__leaf_net644
*662 clknet_1_1__leaf_net645
*663 clknet_1_1__leaf_net646
*664 clknet_1_1__leaf_net651
*665 clknet_1_1__leaf_net653
*666 clknet_1_1__leaf_net654
*667 clknet_1_1__leaf_net655
*668 clknet_1_1__leaf_net668
*669 clknet_1_1__leaf_net735
*670 clknet_1_1__leaf_net736
*671 clknet_1_1__leaf_net737
*672 clknet_1_1__leaf_net767
*673 clknet_1_1__leaf_net768
*674 clknet_1_1__leaf_net769
*675 clknet_1_1__leaf_net786
*676 clknet_1_1__leaf_net787
*677 clknet_1_1__leaf_net788
*678 clknet_1_1__leaf_net806
*679 clknet_1_1__leaf_net807
*680 clknet_1_1__leaf_net808
*681 clknet_1_1__leaf_net825
*682 clknet_1_1__leaf_net826
*683 clknet_1_1__leaf_net827
*684 clknet_1_1__leaf_net910
*685 clknet_4_0_0_clk
*686 clknet_4_10_0_clk
*687 clknet_4_11_0_clk
*688 clknet_4_12_0_clk
*689 clknet_4_13_0_clk
*690 clknet_4_14_0_clk
*691 clknet_4_15_0_clk
*692 clknet_4_1_0_clk
*693 clknet_4_2_0_clk
*694 clknet_4_3_0_clk
*695 clknet_4_4_0_clk
*696 clknet_4_5_0_clk
*697 clknet_4_6_0_clk
*698 clknet_4_7_0_clk
*699 clknet_4_8_0_clk
*700 clknet_4_9_0_clk
*701 net0
*702 net1
*703 net10
*704 net100
*705 net101
*706 net102
*707 net103
*708 net104
*709 net105
*710 net106
*711 net107
*712 net108
*713 net109
*714 net11
*715 net110
*716 net111
*717 net112
*718 net113
*719 net114
*720 net115
*721 net116
*722 net117
*723 net118
*724 net119
*725 net12
*726 net120
*727 net121
*728 net122
*729 net123
*730 net124
*731 net125
*732 net126
*733 net127
*734 net128
*735 net129
*736 net13
*737 net130
*738 net131
*739 net132
*740 net133
*741 net134
*742 net135
*743 net136
*744 net137
*745 net138
*746 net139
*747 net14
*748 net140
*749 net141
*750 net142
*751 net143
*752 net144
*753 net145
*754 net146
*755 net147
*756 net148
*757 net149
*758 net15
*759 net150
*760 net151
*761 net152
*762 net153
*763 net154
*764 net155
*765 net156
*766 net157
*767 net158
*768 net159
*769 net16
*770 net160
*771 net161
*772 net162
*773 net163
*774 net164
*775 net165
*776 net166
*777 net167
*778 net168
*779 net169
*780 net17
*781 net170
*782 net171
*783 net172
*784 net173
*785 net174
*786 net175
*787 net176
*788 net177
*789 net178
*790 net179
*791 net18
*792 net180
*793 net181
*794 net182
*795 net183
*796 net184
*797 net185
*798 net186
*799 net187
*800 net188
*801 net189
*802 net19
*803 net190
*804 net191
*805 net192
*806 net193
*807 net194
*808 net195
*809 net196
*810 net197
*811 net198
*812 net199
*813 net2
*814 net20
*815 net200
*816 net201
*817 net202
*818 net203
*819 net204
*820 net205
*821 net206
*822 net207
*823 net208
*824 net209
*825 net21
*826 net210
*827 net211
*828 net212
*829 net213
*830 net214
*831 net215
*832 net216
*833 net217
*834 net218
*835 net219
*836 net22
*837 net220
*838 net221
*839 net222
*840 net223
*841 net224
*842 net225
*843 net226
*844 net227
*845 net228
*846 net229
*847 net23
*848 net230
*849 net231
*850 net232
*851 net233
*852 net234
*853 net235
*854 net236
*855 net237
*856 net238
*857 net239
*858 net24
*859 net240
*860 net241
*861 net242
*862 net243
*863 net244
*864 net245
*865 net246
*866 net247
*867 net248
*868 net249
*869 net25
*870 net250
*871 net251
*872 net252
*873 net253
*874 net254
*875 net255
*876 net256
*877 net257
*878 net258
*879 net259
*880 net26
*881 net260
*882 net261
*883 net262
*884 net263
*885 net264
*886 net265
*887 net266
*888 net267
*889 net268
*890 net269
*891 net27
*892 net270
*893 net271
*894 net272
*895 net273
*896 net274
*897 net275
*898 net276
*899 net277
*900 net278
*901 net279
*902 net28
*903 net280
*904 net281
*905 net282
*906 net283
*907 net284
*908 net285
*909 net286
*910 net287
*911 net288
*912 net289
*913 net29
*914 net290
*915 net291
*916 net292
*917 net293
*918 net294
*919 net295
*920 net296
*921 net297
*922 net298
*923 net299
*924 net3
*925 net30
*926 net300
*927 net301
*928 net302
*929 net303
*930 net304
*931 net305
*932 net306
*933 net307
*934 net308
*935 net309
*936 net31
*937 net310
*938 net311
*939 net312
*940 net313
*941 net314
*942 net315
*943 net316
*944 net317
*945 net318
*946 net319
*947 net32
*948 net320
*949 net321
*950 net322
*951 net323
*952 net324
*953 net325
*954 net326
*955 net327
*956 net328
*957 net329
*958 net33
*959 net330
*960 net331
*961 net332
*962 net333
*963 net334
*964 net335
*965 net336
*966 net337
*967 net338
*968 net339
*969 net34
*970 net340
*971 net341
*972 net342
*973 net343
*974 net344
*975 net345
*976 net346
*977 net347
*978 net348
*979 net349
*980 net35
*981 net350
*982 net351
*983 net352
*984 net353
*985 net354
*986 net355
*987 net356
*988 net357
*989 net358
*990 net359
*991 net36
*992 net360
*993 net361
*994 net362
*995 net363
*996 net364
*997 net365
*998 net366
*999 net367
*1000 net368
*1001 net369
*1002 net37
*1003 net370
*1004 net371
*1005 net372
*1006 net373
*1007 net374
*1008 net375
*1009 net376
*1010 net377
*1011 net378
*1012 net379
*1013 net38
*1014 net380
*1015 net381
*1016 net382
*1017 net383
*1018 net384
*1019 net385
*1020 net386
*1021 net387
*1022 net388
*1023 net389
*1024 net39
*1025 net390
*1026 net391
*1027 net392
*1028 net393
*1029 net394
*1030 net395
*1031 net396
*1032 net397
*1033 net398
*1034 net399
*1035 net4
*1036 net40
*1037 net400
*1038 net401
*1039 net402
*1040 net403
*1041 net404
*1042 net405
*1043 net406
*1044 net407
*1045 net408
*1046 net409
*1047 net41
*1048 net410
*1049 net411
*1050 net412
*1051 net413
*1052 net414
*1053 net415
*1054 net416
*1055 net417
*1056 net418
*1057 net419
*1058 net42
*1059 net420
*1060 net421
*1061 net422
*1062 net423
*1063 net424
*1064 net425
*1065 net426
*1066 net427
*1067 net428
*1068 net429
*1069 net43
*1070 net430
*1071 net431
*1072 net432
*1073 net433
*1074 net434
*1075 net435
*1076 net436
*1077 net437
*1078 net438
*1079 net439
*1080 net44
*1081 net440
*1082 net441
*1083 net442
*1084 net443
*1085 net444
*1086 net445
*1087 net446
*1088 net447
*1089 net448
*1090 net449
*1091 net45
*1092 net450
*1093 net451
*1094 net452
*1095 net453
*1096 net454
*1097 net455
*1098 net456
*1099 net457
*1100 net458
*1101 net459
*1102 net46
*1103 net460
*1104 net461
*1105 net462
*1106 net463
*1107 net464
*1108 net465
*1109 net466
*1110 net467
*1111 net468
*1112 net469
*1113 net47
*1114 net470
*1115 net471
*1116 net472
*1117 net473
*1118 net474
*1119 net475
*1120 net476
*1121 net477
*1122 net478
*1123 net479
*1124 net48
*1125 net480
*1126 net481
*1127 net482
*1128 net483
*1129 net484
*1130 net485
*1131 net486
*1132 net487
*1133 net488
*1134 net489
*1135 net49
*1136 net490
*1137 net491
*1138 net492
*1139 net493
*1140 net494
*1141 net495
*1142 net496
*1143 net497
*1144 net498
*1145 net499
*1146 net5
*1147 net50
*1148 net500
*1149 net501
*1150 net502
*1151 net503
*1152 net504
*1153 net505
*1154 net506
*1155 net507
*1156 net508
*1157 net509
*1158 net51
*1159 net510
*1160 net511
*1161 net512
*1162 net513
*1163 net514
*1164 net515
*1165 net516
*1166 net517
*1167 net518
*1168 net519
*1169 net52
*1170 net520
*1171 net521
*1172 net522
*1173 net523
*1174 net524
*1175 net525
*1176 net526
*1177 net527
*1178 net528
*1179 net529
*1180 net53
*1181 net530
*1182 net531
*1183 net532
*1184 net533
*1185 net534
*1186 net535
*1187 net536
*1188 net537
*1189 net538
*1190 net539
*1191 net54
*1192 net540
*1193 net541
*1194 net542
*1195 net543
*1196 net544
*1197 net545
*1198 net546
*1199 net547
*1200 net548
*1201 net549
*1202 net55
*1203 net550
*1204 net551
*1205 net552
*1206 net553
*1207 net554
*1208 net555
*1209 net556
*1210 net557
*1211 net558
*1212 net559
*1213 net56
*1214 net560
*1215 net561
*1216 net562
*1217 net563
*1218 net564
*1219 net565
*1220 net566
*1221 net567
*1222 net568
*1223 net569
*1224 net57
*1225 net570
*1226 net571
*1227 net572
*1228 net573
*1229 net574
*1230 net575
*1231 net576
*1232 net577
*1233 net578
*1234 net579
*1235 net58
*1236 net580
*1237 net581
*1238 net582
*1239 net583
*1240 net584
*1241 net585
*1242 net586
*1243 net587
*1244 net588
*1245 net589
*1246 net59
*1247 net590
*1248 net591
*1249 net592
*1250 net593
*1251 net594
*1252 net595
*1253 net596
*1254 net597
*1255 net598
*1256 net599
*1257 net6
*1258 net60
*1259 net600
*1260 net601
*1261 net602
*1262 net603
*1263 net604
*1264 net605
*1265 net606
*1266 net607
*1267 net608
*1268 net609
*1269 net61
*1270 net610
*1271 net611
*1272 net612
*1273 net613
*1274 net614
*1275 net615
*1276 net616
*1277 net617
*1278 net618
*1279 net619
*1280 net62
*1281 net620
*1282 net621
*1283 net622
*1284 net623
*1285 net624
*1286 net625
*1287 net626
*1288 net627
*1289 net628
*1290 net629
*1291 net63
*1292 net630
*1293 net631
*1294 net632
*1295 net633
*1296 net634
*1297 net635
*1298 net636
*1299 net637
*1300 net638
*1301 net639
*1302 net64
*1303 net640
*1304 net641
*1305 net642
*1306 net643
*1307 net644
*1308 net645
*1309 net646
*1310 net647
*1311 net648
*1312 net649
*1313 net65
*1314 net650
*1315 net651
*1316 net652
*1317 net653
*1318 net654
*1319 net655
*1320 net656
*1321 net657
*1322 net658
*1323 net659
*1324 net66
*1325 net660
*1326 net661
*1327 net662
*1328 net663
*1329 net664
*1330 net665
*1331 net666
*1332 net667
*1333 net668
*1334 net669
*1335 net67
*1336 net670
*1337 net671
*1338 net672
*1339 net673
*1340 net674
*1341 net675
*1342 net676
*1343 net677
*1344 net678
*1345 net679
*1346 net68
*1347 net680
*1348 net681
*1349 net682
*1350 net683
*1351 net684
*1352 net685
*1353 net686
*1354 net687
*1355 net688
*1356 net689
*1357 net69
*1358 net690
*1359 net691
*1360 net692
*1361 net693
*1362 net694
*1363 net695
*1364 net696
*1365 net697
*1366 net698
*1367 net699
*1368 net7
*1369 net70
*1370 net700
*1371 net701
*1372 net702
*1373 net703
*1374 net704
*1375 net705
*1376 net706
*1377 net707
*1378 net708
*1379 net709
*1380 net71
*1381 net710
*1382 net711
*1383 net712
*1384 net713
*1385 net714
*1386 net715
*1387 net716
*1388 net717
*1389 net718
*1390 net719
*1391 net72
*1392 net720
*1393 net721
*1394 net722
*1395 net723
*1396 net724
*1397 net725
*1398 net726
*1399 net727
*1400 net728
*1401 net729
*1402 net73
*1403 net730
*1404 net731
*1405 net732
*1406 net733
*1407 net734
*1408 net735
*1409 net736
*1410 net737
*1411 net738
*1412 net739
*1413 net74
*1414 net740
*1415 net741
*1416 net742
*1417 net743
*1418 net744
*1419 net745
*1420 net746
*1421 net747
*1422 net748
*1423 net749
*1424 net75
*1425 net750
*1426 net751
*1427 net752
*1428 net753
*1429 net754
*1430 net755
*1431 net756
*1432 net757
*1433 net758
*1434 net759
*1435 net76
*1436 net760
*1437 net761
*1438 net762
*1439 net763
*1440 net764
*1441 net765
*1442 net766
*1443 net767
*1444 net768
*1445 net769
*1446 net77
*1447 net770
*1448 net771
*1449 net772
*1450 net773
*1451 net774
*1452 net775
*1453 net776
*1454 net777
*1455 net778
*1456 net779
*1457 net78
*1458 net780
*1459 net781
*1460 net782
*1461 net783
*1462 net784
*1463 net785
*1464 net786
*1465 net787
*1466 net788
*1467 net789
*1468 net79
*1469 net790
*1470 net791
*1471 net792
*1472 net793
*1473 net794
*1474 net795
*1475 net796
*1476 net797
*1477 net798
*1478 net799
*1479 net8
*1480 net80
*1481 net800
*1482 net801
*1483 net802
*1484 net803
*1485 net804
*1486 net805
*1487 net806
*1488 net807
*1489 net808
*1490 net809
*1491 net81
*1492 net810
*1493 net811
*1494 net812
*1495 net813
*1496 net814
*1497 net815
*1498 net816
*1499 net817
*1500 net818
*1501 net819
*1502 net82
*1503 net820
*1504 net821
*1505 net822
*1506 net823
*1507 net824
*1508 net825
*1509 net826
*1510 net827
*1511 net828
*1512 net829
*1513 net83
*1514 net830
*1515 net831
*1516 net832
*1517 net833
*1518 net834
*1519 net835
*1520 net836
*1521 net837
*1522 net838
*1523 net839
*1524 net84
*1525 net840
*1526 net841
*1527 net842
*1528 net843
*1529 net844
*1530 net845
*1531 net846
*1532 net847
*1533 net848
*1534 net849
*1535 net85
*1536 net850
*1537 net851
*1538 net852
*1539 net853
*1540 net854
*1541 net855
*1542 net856
*1543 net857
*1544 net858
*1545 net859
*1546 net86
*1547 net860
*1548 net861
*1549 net862
*1550 net863
*1551 net864
*1552 net865
*1553 net866
*1554 net867
*1555 net868
*1556 net869
*1557 net87
*1558 net870
*1559 net871
*1560 net872
*1561 net873
*1562 net874
*1563 net875
*1564 net876
*1565 net877
*1566 net878
*1567 net879
*1568 net88
*1569 net880
*1570 net881
*1571 net882
*1572 net883
*1573 net884
*1574 net885
*1575 net886
*1576 net887
*1577 net888
*1578 net889
*1579 net89
*1580 net890
*1581 net891
*1582 net892
*1583 net893
*1584 net894
*1585 net895
*1586 net896
*1587 net897
*1588 net898
*1589 net899
*1590 net9
*1591 net90
*1592 net900
*1593 net901
*1594 net902
*1595 net903
*1596 net904
*1597 net905
*1598 net906
*1599 net907
*1600 net908
*1601 net909
*1602 net91
*1603 net910
*1604 net911
*1605 net912
*1606 net913
*1607 net914
*1608 net915
*1609 net916
*1610 net917
*1611 net918
*1612 net919
*1613 net92
*1614 net920
*1615 net921
*1616 net922
*1617 net923
*1618 net924
*1619 net925
*1620 net926
*1621 net927
*1622 net928
*1623 net929
*1624 net93
*1625 net930
*1626 net931
*1627 net932
*1628 net933
*1629 net934
*1630 net935
*1631 net936
*1632 net937
*1633 net938
*1634 net939
*1635 net94
*1636 net940
*1637 net941
*1638 net942
*1639 net943
*1640 net944
*1641 net945
*1642 net946
*1643 net947
*1644 net948
*1645 net949
*1646 net95
*1647 net950
*1648 net951
*1649 net952
*1650 net953
*1651 net954
*1652 net955
*1653 net956
*1654 net957
*1655 net958
*1656 net959
*1657 net96
*1658 net960
*1659 net961
*1660 net962
*1661 net963
*1662 net964
*1663 net965
*1664 net966
*1665 net967
*1666 net968
*1667 net969
*1668 net97
*1669 net970
*1670 net98
*1671 net99
*1672 ANTENNA_c158_X
*1673 ANTENNA_c159_B
*1674 ANTENNA_c161_B
*1675 ANTENNA_c162_B1
*1676 ANTENNA_c162_C1
*1677 ANTENNA_c163_A
*1678 ANTENNA_c165_B1
*1679 ANTENNA_c166_X
*1680 ANTENNA_c167_A1
*1681 ANTENNA_c167_A3
*1682 ANTENNA_c168_A1
*1683 ANTENNA_c168_A2
*1684 ANTENNA_c168_X
*1685 ANTENNA_c169_S1
*1686 ANTENNA_c171_S1
*1687 ANTENNA_c176_A
*1688 ANTENNA_c178_B
*1689 ANTENNA_c178_X
*1690 ANTENNA_c181_C
*1691 ANTENNA_c185_CLK
*1692 ANTENNA_c186_D
*1693 ANTENNA_c186_SCE
*1694 ANTENNA_c187_CLK_N
*1695 ANTENNA_c189_CLK_N
*1696 ANTENNA_c189_SET_B
*1697 ANTENNA_c190_CLK
*1698 ANTENNA_c191_S1
*1699 ANTENNA_c195_C1
*1700 ANTENNA_c208_B
*1701 ANTENNA_c209_C
*1702 ANTENNA_c212_S1
*1703 ANTENNA_c213_S0
*1704 ANTENNA_c215_S0
*1705 ANTENNA_c219_CLK_N
*1706 ANTENNA_c219_Q_N
*1707 ANTENNA_c225_A
*1708 ANTENNA_c225_X
*1709 ANTENNA_c229_X
*1710 ANTENNA_c231_A0
*1711 ANTENNA_c231_S1
*1712 ANTENNA_c232_B
*1713 ANTENNA_c233_C_N
*1714 ANTENNA_c234_D1
*1715 ANTENNA_c235_A2
*1716 ANTENNA_c235_A3
*1717 ANTENNA_c236_A2
*1718 ANTENNA_c237_A2
*1719 ANTENNA_c238_A1
*1720 ANTENNA_c253_CLK
*1721 ANTENNA_c256_CLK
*1722 ANTENNA_c264_B
*1723 ANTENNA_c264_X
*1724 ANTENNA_c265_A
*1725 ANTENNA_c266_B
*1726 ANTENNA_c267_A
*1727 ANTENNA_c269_B
*1728 ANTENNA_c270_A