*SPEF "ieee 1481-1999"
*DESIGN "netlist_1"
*DATE "19:21:20 Friday August 16, 2024"
*VENDOR "The OpenROAD Project"
*PROGRAM "OpenROAD"
*VERSION "d423155d69de7f683a23f6916ead418a615ad4ad"
*DESIGN_FLOW "NAME_SCOPE LOCAL" "PIN_CAP NONE"
*DIVIDER /
*DELIMITER :
*BUS_DELIMITER []
*T_UNIT 1 NS
*C_UNIT 1 PF
*R_UNIT 1 OHM
*L_UNIT 1 HENRY

*NAME_MAP
*3 clk
*4 in0
*5 in1
*6 in10
*7 in11
*8 in12
*9 in13
*10 in14
*11 in15
*12 in16
*13 in17
*14 in18
*15 in19
*16 in2
*17 in20
*18 in21
*19 in22
*20 in23
*21 in24
*22 in3
*23 in4
*24 in5
*25 in6
*26 in7
*27 in8
*28 in9
*29 out0
*30 out1
*31 out10
*32 out11
*33 out12
*34 out13
*35 out14
*36 out15
*37 out16
*38 out17
*39 out18
*40 out19
*41 out2
*42 out20
*43 out21
*44 out22
*45 out23
*46 out24
*47 out3
*48 out4
*49 out5
*50 out6
*51 out7
*52 out8
*53 out9
*54 rst
*55 clknet_0_clk
*56 clknet_0_net152
*57 clknet_0_net161
*58 clknet_0_net163
*59 clknet_0_net165
*60 clknet_0_net167
*61 clknet_0_net174
*62 clknet_0_net175
*63 clknet_0_net177
*64 clknet_0_net178
*65 clknet_0_net179
*66 clknet_0_net181
*67 clknet_0_net182
*68 clknet_0_net185
*69 clknet_0_net186
*70 clknet_0_net191
*71 clknet_0_net192
*72 clknet_0_net200
*73 clknet_0_net203
*74 clknet_0_net221
*75 clknet_0_net222
*76 clknet_0_net225
*77 clknet_0_net226
*78 clknet_0_net231
*79 clknet_0_net233
*80 clknet_0_net234
*81 clknet_0_net286
*82 clknet_0_net289
*83 clknet_0_net293
*84 clknet_0_net296
*85 clknet_0_net297
*86 clknet_0_net301
*87 clknet_0_net302
*88 clknet_0_net309
*89 clknet_0_net310
*90 clknet_0_net313
*91 clknet_0_net315
*92 clknet_0_net316
*93 clknet_0_net317
*94 clknet_0_net320
*95 clknet_0_net327
*96 clknet_0_net331
*97 clknet_0_net339
*98 clknet_0_net351
*99 clknet_0_net352
*100 clknet_0_net365
*101 clknet_0_net366
*102 clknet_0_net436
*103 clknet_0_net437
*104 clknet_0_net442
*105 clknet_0_net447
*106 clknet_0_net455
*107 clknet_0_net456
*108 clknet_0_net469
*109 clknet_0_net470
*110 clknet_0_net489
*111 clknet_0_net496
*112 clknet_0_net499
*113 clknet_0_net500
*114 clknet_0_net504
*115 clknet_0_net561
*116 clknet_0_net562
*117 clknet_0_net567
*118 clknet_0_net570
*119 clknet_0_net574
*120 clknet_0_net595
*121 clknet_0_net596
*122 clknet_0_net597
*123 clknet_0_net600
*124 clknet_0_net604
*125 clknet_0_net605
*126 clknet_0_net607
*127 clknet_0_net609
*128 clknet_0_net611
*129 clknet_0_net635
*130 clknet_0_net693
*131 clknet_0_net694
*132 clknet_0_net696
*133 clknet_0_net700
*134 clknet_0_net703
*135 clknet_0_net706
*136 clknet_0_net709
*137 clknet_0_net721
*138 clknet_0_net819
*139 clknet_0_net822
*140 clknet_0_net823
*141 clknet_0_net858
*142 clknet_0_net859
*143 clknet_0_net880
*144 clknet_0_net881
*145 clknet_0_net882
*146 clknet_0_net901
*147 clknet_0_net902
*148 clknet_0_net903
*149 clknet_0_net922
*150 clknet_0_net923
*151 clknet_0_net924
*152 clknet_0_net942
*153 clknet_0_net943
*154 clknet_0_net944
*155 clknet_0_net985
*156 clknet_0_net994
*157 clknet_0_net996
*158 clknet_1_0__leaf_net152
*159 clknet_1_0__leaf_net161
*160 clknet_1_0__leaf_net163
*161 clknet_1_0__leaf_net165
*162 clknet_1_0__leaf_net167
*163 clknet_1_0__leaf_net174
*164 clknet_1_0__leaf_net175
*165 clknet_1_0__leaf_net177
*166 clknet_1_0__leaf_net178
*167 clknet_1_0__leaf_net179
*168 clknet_1_0__leaf_net181
*169 clknet_1_0__leaf_net182
*170 clknet_1_0__leaf_net185
*171 clknet_1_0__leaf_net186
*172 clknet_1_0__leaf_net191
*173 clknet_1_0__leaf_net192
*174 clknet_1_0__leaf_net200
*175 clknet_1_0__leaf_net203
*176 clknet_1_0__leaf_net221
*177 clknet_1_0__leaf_net222
*178 clknet_1_0__leaf_net225
*179 clknet_1_0__leaf_net226
*180 clknet_1_0__leaf_net231
*181 clknet_1_0__leaf_net233
*182 clknet_1_0__leaf_net234
*183 clknet_1_0__leaf_net286
*184 clknet_1_0__leaf_net289
*185 clknet_1_0__leaf_net293
*186 clknet_1_0__leaf_net296
*187 clknet_1_0__leaf_net297
*188 clknet_1_0__leaf_net301
*189 clknet_1_0__leaf_net302
*190 clknet_1_0__leaf_net309
*191 clknet_1_0__leaf_net310
*192 clknet_1_0__leaf_net313
*193 clknet_1_0__leaf_net315
*194 clknet_1_0__leaf_net316
*195 clknet_1_0__leaf_net317
*196 clknet_1_0__leaf_net320
*197 clknet_1_0__leaf_net327
*198 clknet_1_0__leaf_net331
*199 clknet_1_0__leaf_net339
*200 clknet_1_0__leaf_net351
*201 clknet_1_0__leaf_net352
*202 clknet_1_0__leaf_net365
*203 clknet_1_0__leaf_net366
*204 clknet_1_0__leaf_net436
*205 clknet_1_0__leaf_net437
*206 clknet_1_0__leaf_net442
*207 clknet_1_0__leaf_net447
*208 clknet_1_0__leaf_net455
*209 clknet_1_0__leaf_net456
*210 clknet_1_0__leaf_net469
*211 clknet_1_0__leaf_net470
*212 clknet_1_0__leaf_net489
*213 clknet_1_0__leaf_net496
*214 clknet_1_0__leaf_net499
*215 clknet_1_0__leaf_net500
*216 clknet_1_0__leaf_net504
*217 clknet_1_0__leaf_net561
*218 clknet_1_0__leaf_net562
*219 clknet_1_0__leaf_net567
*220 clknet_1_0__leaf_net570
*221 clknet_1_0__leaf_net574
*222 clknet_1_0__leaf_net595
*223 clknet_1_0__leaf_net596
*224 clknet_1_0__leaf_net597
*225 clknet_1_0__leaf_net600
*226 clknet_1_0__leaf_net604
*227 clknet_1_0__leaf_net605
*228 clknet_1_0__leaf_net607
*229 clknet_1_0__leaf_net609
*230 clknet_1_0__leaf_net611
*231 clknet_1_0__leaf_net635
*232 clknet_1_0__leaf_net693
*233 clknet_1_0__leaf_net694
*234 clknet_1_0__leaf_net696
*235 clknet_1_0__leaf_net700
*236 clknet_1_0__leaf_net703
*237 clknet_1_0__leaf_net706
*238 clknet_1_0__leaf_net709
*239 clknet_1_0__leaf_net721
*240 clknet_1_0__leaf_net819
*241 clknet_1_0__leaf_net822
*242 clknet_1_0__leaf_net823
*243 clknet_1_0__leaf_net858
*244 clknet_1_0__leaf_net859
*245 clknet_1_0__leaf_net880
*246 clknet_1_0__leaf_net881
*247 clknet_1_0__leaf_net882
*248 clknet_1_0__leaf_net901
*249 clknet_1_0__leaf_net902
*250 clknet_1_0__leaf_net903
*251 clknet_1_0__leaf_net922
*252 clknet_1_0__leaf_net923
*253 clknet_1_0__leaf_net924
*254 clknet_1_0__leaf_net942
*255 clknet_1_0__leaf_net943
*256 clknet_1_0__leaf_net944
*257 clknet_1_0__leaf_net985
*258 clknet_1_0__leaf_net994
*259 clknet_1_0__leaf_net996
*260 clknet_1_1__leaf_net152
*261 clknet_1_1__leaf_net161
*262 clknet_1_1__leaf_net163
*263 clknet_1_1__leaf_net165
*264 clknet_1_1__leaf_net167
*265 clknet_1_1__leaf_net174
*266 clknet_1_1__leaf_net175
*267 clknet_1_1__leaf_net177
*268 clknet_1_1__leaf_net178
*269 clknet_1_1__leaf_net179
*270 clknet_1_1__leaf_net181
*271 clknet_1_1__leaf_net182
*272 clknet_1_1__leaf_net185
*273 clknet_1_1__leaf_net186
*274 clknet_1_1__leaf_net191
*275 clknet_1_1__leaf_net192
*276 clknet_1_1__leaf_net200
*277 clknet_1_1__leaf_net203
*278 clknet_1_1__leaf_net221
*279 clknet_1_1__leaf_net222
*280 clknet_1_1__leaf_net225
*281 clknet_1_1__leaf_net226
*282 clknet_1_1__leaf_net231
*283 clknet_1_1__leaf_net233
*284 clknet_1_1__leaf_net234
*285 clknet_1_1__leaf_net286
*286 clknet_1_1__leaf_net289
*287 clknet_1_1__leaf_net293
*288 clknet_1_1__leaf_net296
*289 clknet_1_1__leaf_net297
*290 clknet_1_1__leaf_net301
*291 clknet_1_1__leaf_net302
*292 clknet_1_1__leaf_net309
*293 clknet_1_1__leaf_net310
*294 clknet_1_1__leaf_net313
*295 clknet_1_1__leaf_net315
*296 clknet_1_1__leaf_net316
*297 clknet_1_1__leaf_net317
*298 clknet_1_1__leaf_net320
*299 clknet_1_1__leaf_net327
*300 clknet_1_1__leaf_net331
*301 clknet_1_1__leaf_net339
*302 clknet_1_1__leaf_net351
*303 clknet_1_1__leaf_net352
*304 clknet_1_1__leaf_net365
*305 clknet_1_1__leaf_net366
*306 clknet_1_1__leaf_net436
*307 clknet_1_1__leaf_net437
*308 clknet_1_1__leaf_net442
*309 clknet_1_1__leaf_net447
*310 clknet_1_1__leaf_net455
*311 clknet_1_1__leaf_net456
*312 clknet_1_1__leaf_net469
*313 clknet_1_1__leaf_net470
*314 clknet_1_1__leaf_net489
*315 clknet_1_1__leaf_net496
*316 clknet_1_1__leaf_net499
*317 clknet_1_1__leaf_net500
*318 clknet_1_1__leaf_net504
*319 clknet_1_1__leaf_net561
*320 clknet_1_1__leaf_net562
*321 clknet_1_1__leaf_net567
*322 clknet_1_1__leaf_net570
*323 clknet_1_1__leaf_net574
*324 clknet_1_1__leaf_net595
*325 clknet_1_1__leaf_net596
*326 clknet_1_1__leaf_net597
*327 clknet_1_1__leaf_net600
*328 clknet_1_1__leaf_net604
*329 clknet_1_1__leaf_net605
*330 clknet_1_1__leaf_net607
*331 clknet_1_1__leaf_net609
*332 clknet_1_1__leaf_net611
*333 clknet_1_1__leaf_net635
*334 clknet_1_1__leaf_net693
*335 clknet_1_1__leaf_net694
*336 clknet_1_1__leaf_net696
*337 clknet_1_1__leaf_net700
*338 clknet_1_1__leaf_net703
*339 clknet_1_1__leaf_net706
*340 clknet_1_1__leaf_net709
*341 clknet_1_1__leaf_net721
*342 clknet_1_1__leaf_net819
*343 clknet_1_1__leaf_net822
*344 clknet_1_1__leaf_net823
*345 clknet_1_1__leaf_net858
*346 clknet_1_1__leaf_net859
*347 clknet_1_1__leaf_net880
*348 clknet_1_1__leaf_net881
*349 clknet_1_1__leaf_net882
*350 clknet_1_1__leaf_net901
*351 clknet_1_1__leaf_net902
*352 clknet_1_1__leaf_net903
*353 clknet_1_1__leaf_net922
*354 clknet_1_1__leaf_net923
*355 clknet_1_1__leaf_net924
*356 clknet_1_1__leaf_net942
*357 clknet_1_1__leaf_net943
*358 clknet_1_1__leaf_net944
*359 clknet_1_1__leaf_net985
*360 clknet_1_1__leaf_net994
*361 clknet_1_1__leaf_net996
*362 clknet_4_0_0_clk
*363 clknet_4_10_0_clk
*364 clknet_4_11_0_clk
*365 clknet_4_12_0_clk
*366 clknet_4_13_0_clk
*367 clknet_4_14_0_clk
*368 clknet_4_15_0_clk
*369 clknet_4_1_0_clk
*370 clknet_4_2_0_clk
*371 clknet_4_3_0_clk
*372 clknet_4_4_0_clk
*373 clknet_4_5_0_clk
*374 clknet_4_6_0_clk
*375 clknet_4_7_0_clk
*376 clknet_4_8_0_clk
*377 clknet_4_9_0_clk
*378 net0
*379 net1
*380 net10
*381 net100
*382 net1000
*383 net1001
*384 net1002
*385 net1003
*386 net1004
*387 net1005
*388 net1006
*389 net1007
*390 net1008
*391 net1009
*392 net101
*393 net1010
*394 net1011
*395 net1012
*396 net1013
*397 net1014
*398 net1015
*399 net1016
*400 net1017
*401 net1018
*402 net1019
*403 net102
*404 net1020
*405 net1021
*406 net1022
*407 net1023
*408 net1024
*409 net1025
*410 net1026
*411 net1027
*412 net1028
*413 net1029
*414 net103
*415 net1030
*416 net1031
*417 net1032
*418 net1033
*419 net1034
*420 net1035
*421 net1036
*422 net1037
*423 net1038
*424 net1039
*425 net104
*426 net1040
*427 net1041
*428 net1042
*429 net1043
*430 net1044
*431 net1045
*432 net1046
*433 net1047
*434 net1048
*435 net1049
*436 net105
*437 net1050
*438 net1051
*439 net1052
*440 net1053
*441 net1054
*442 net1055
*443 net1056
*444 net1057
*445 net1058
*446 net1059
*447 net106
*448 net1060
*449 net1061
*450 net1062
*451 net1063
*452 net1064
*453 net1065
*454 net1066
*455 net1067
*456 net1068
*457 net1069
*458 net107
*459 net1070
*460 net1071
*461 net1072
*462 net1073
*463 net1074
*464 net1075
*465 net1076
*466 net1077
*467 net1078
*468 net1079
*469 net108
*470 net1080
*471 net1081
*472 net1082
*473 net1083
*474 net1084
*475 net1085
*476 net1086
*477 net1087
*478 net1088
*479 net1089
*480 net109
*481 net1090
*482 net1091
*483 net1092
*484 net1093
*485 net1094
*486 net1095
*487 net1096
*488 net1097
*489 net1098
*490 net1099
*491 net11
*492 net110
*493 net1100
*494 net1101
*495 net1102
*496 net1103
*497 net1104
*498 net1105
*499 net1106
*500 net1107
*501 net1108
*502 net1109
*503 net111
*504 net1110
*505 net1111
*506 net1112
*507 net1113
*508 net1114
*509 net1115
*510 net1116
*511 net1117
*512 net1118
*513 net1119
*514 net112
*515 net1120
*516 net1121
*517 net1122
*518 net1123
*519 net1124
*520 net1125
*521 net1126
*522 net1127
*523 net1128
*524 net1129
*525 net113
*526 net1130
*527 net1131
*528 net1132
*529 net1133
*530 net1134
*531 net1135
*532 net1136
*533 net1137
*534 net1138
*535 net1139
*536 net114
*537 net1140
*538 net1141
*539 net1142
*540 net1143
*541 net1144
*542 net1145
*543 net1146
*544 net1147
*545 net1148
*546 net1149
*547 net115
*548 net1150
*549 net1151
*550 net1152
*551 net1153
*552 net1154
*553 net1155
*554 net1156
*555 net1157
*556 net1158
*557 net1159
*558 net116
*559 net1160
*560 net1161
*561 net1162
*562 net1163
*563 net1164
*564 net1165
*565 net1166
*566 net1167
*567 net1168
*568 net1169
*569 net117
*570 net1170
*571 net1171
*572 net1172
*573 net1173
*574 net1174
*575 net1175
*576 net1176
*577 net1177
*578 net1178
*579 net1179
*580 net118
*581 net1180
*582 net1181
*583 net1182
*584 net1183
*585 net1184
*586 net1185
*587 net1186
*588 net1187
*589 net1188
*590 net1189
*591 net119
*592 net12
*593 net120
*594 net121
*595 net122
*596 net123
*597 net124
*598 net125
*599 net126
*600 net127
*601 net128
*602 net129
*603 net13
*604 net130
*605 net131
*606 net132
*607 net133
*608 net134
*609 net135
*610 net136
*611 net137
*612 net138
*613 net139
*614 net14
*615 net140
*616 net141
*617 net142
*618 net143
*619 net144
*620 net145
*621 net146
*622 net147
*623 net148
*624 net149
*625 net15
*626 net150
*627 net151
*628 net152
*629 net153
*630 net154
*631 net155
*632 net156
*633 net157
*634 net158
*635 net159
*636 net16
*637 net160
*638 net161
*639 net162
*640 net163
*641 net164
*642 net165
*643 net166
*644 net167
*645 net168
*646 net169
*647 net17
*648 net170
*649 net171
*650 net172
*651 net173
*652 net174
*653 net175
*654 net176
*655 net177
*656 net178
*657 net179
*658 net18
*659 net180
*660 net181
*661 net182
*662 net183
*663 net184
*664 net185
*665 net186
*666 net187
*667 net188
*668 net189
*669 net19
*670 net190
*671 net191
*672 net192
*673 net193
*674 net194
*675 net195
*676 net196
*677 net197
*678 net198
*679 net199
*680 net2
*681 net20
*682 net200
*683 net201
*684 net202
*685 net203
*686 net204
*687 net205
*688 net206
*689 net207
*690 net208
*691 net209
*692 net21
*693 net210
*694 net211
*695 net212
*696 net213
*697 net214
*698 net215
*699 net216
*700 net217
*701 net218
*702 net219
*703 net22
*704 net220
*705 net221
*706 net222
*707 net223
*708 net224
*709 net225
*710 net226
*711 net227
*712 net228
*713 net229
*714 net23
*715 net230
*716 net231
*717 net232
*718 net233
*719 net234
*720 net235
*721 net236
*722 net237
*723 net238
*724 net239
*725 net24
*726 net240
*727 net241
*728 net242
*729 net243
*730 net244
*731 net245
*732 net246
*733 net247
*734 net248
*735 net249
*736 net25
*737 net250
*738 net251
*739 net252
*740 net253
*741 net254
*742 net255
*743 net256
*744 net257
*745 net258
*746 net259
*747 net26
*748 net260
*749 net261
*750 net262
*751 net263
*752 net264
*753 net265
*754 net266
*755 net267
*756 net268
*757 net269
*758 net27
*759 net270
*760 net271
*761 net272
*762 net273
*763 net274
*764 net275
*765 net276
*766 net277
*767 net278
*768 net279
*769 net28
*770 net280
*771 net281
*772 net282
*773 net283
*774 net284
*775 net285
*776 net286
*777 net287
*778 net288
*779 net289
*780 net29
*781 net290
*782 net291
*783 net292
*784 net293
*785 net294
*786 net295
*787 net296
*788 net297
*789 net298
*790 net299
*791 net3
*792 net30
*793 net300
*794 net301
*795 net302
*796 net303
*797 net304
*798 net305
*799 net306
*800 net307
*801 net308
*802 net309
*803 net31
*804 net310
*805 net311
*806 net312
*807 net313
*808 net314
*809 net315
*810 net316
*811 net317
*812 net318
*813 net319
*814 net32
*815 net320
*816 net321
*817 net322
*818 net323
*819 net324
*820 net325
*821 net326
*822 net327
*823 net328
*824 net329
*825 net33
*826 net330
*827 net331
*828 net332
*829 net333
*830 net334
*831 net335
*832 net336
*833 net337
*834 net338
*835 net339
*836 net34
*837 net340
*838 net341
*839 net342
*840 net343
*841 net344
*842 net345
*843 net346
*844 net347
*845 net348
*846 net349
*847 net35
*848 net350
*849 net351
*850 net352
*851 net353
*852 net354
*853 net355
*854 net356
*855 net357
*856 net358
*857 net359
*858 net36
*859 net360
*860 net361
*861 net362
*862 net363
*863 net364
*864 net365
*865 net366
*866 net367
*867 net368
*868 net369
*869 net37
*870 net370
*871 net371
*872 net372
*873 net373
*874 net374
*875 net375
*876 net376
*877 net377
*878 net378
*879 net379
*880 net38
*881 net380
*882 net381
*883 net382
*884 net383
*885 net384
*886 net385
*887 net386
*888 net387
*889 net388
*890 net389
*891 net39
*892 net390
*893 net391
*894 net392
*895 net393
*896 net394
*897 net395
*898 net396
*899 net397
*900 net398
*901 net399
*902 net4
*903 net40
*904 net400
*905 net401
*906 net402
*907 net403
*908 net404
*909 net405
*910 net406
*911 net407
*912 net408
*913 net409
*914 net41
*915 net410
*916 net411
*917 net412
*918 net413
*919 net414
*920 net415
*921 net416
*922 net417
*923 net418
*924 net419
*925 net42
*926 net420
*927 net421
*928 net422
*929 net423
*930 net424
*931 net425
*932 net426
*933 net427
*934 net428
*935 net429
*936 net43
*937 net430
*938 net431
*939 net432
*940 net433
*941 net434
*942 net435
*943 net436
*944 net437
*945 net438
*946 net439
*947 net44
*948 net440
*949 net441
*950 net442
*951 net443
*952 net444
*953 net445
*954 net446
*955 net447
*956 net448
*957 net449
*958 net45
*959 net450
*960 net451
*961 net452
*962 net453
*963 net454
*964 net455
*965 net456
*966 net457
*967 net458
*968 net459
*969 net46
*970 net460
*971 net461
*972 net462
*973 net463
*974 net464
*975 net465
*976 net466
*977 net467
*978 net468
*979 net469
*980 net47
*981 net470
*982 net471
*983 net472
*984 net473
*985 net474
*986 net475
*987 net476
*988 net477
*989 net478
*990 net479
*991 net48
*992 net480
*993 net481
*994 net482
*995 net483
*996 net484
*997 net485
*998 net486
*999 net487
*1000 net488
*1001 net489
*1002 net49
*1003 net490
*1004 net491
*1005 net492
*1006 net493
*1007 net494
*1008 net495
*1009 net496
*1010 net497
*1011 net498
*1012 net499
*1013 net5
*1014 net50
*1015 net500
*1016 net501
*1017 net502
*1018 net503
*1019 net504
*1020 net505
*1021 net506
*1022 net507
*1023 net508
*1024 net509
*1025 net51
*1026 net510
*1027 net511
*1028 net512
*1029 net513
*1030 net514
*1031 net515
*1032 net516
*1033 net517
*1034 net518
*1035 net519
*1036 net52
*1037 net520
*1038 net521
*1039 net522
*1040 net523
*1041 net524
*1042 net525
*1043 net526
*1044 net527
*1045 net528
*1046 net529
*1047 net53
*1048 net530
*1049 net531
*1050 net532
*1051 net533
*1052 net534
*1053 net535
*1054 net536
*1055 net537
*1056 net538
*1057 net539
*1058 net54
*1059 net540
*1060 net541
*1061 net542
*1062 net543
*1063 net544
*1064 net545
*1065 net546
*1066 net547
*1067 net548
*1068 net549
*1069 net55
*1070 net550
*1071 net551
*1072 net552
*1073 net553
*1074 net554
*1075 net555
*1076 net556
*1077 net557
*1078 net558
*1079 net559
*1080 net56
*1081 net560
*1082 net561
*1083 net562
*1084 net563
*1085 net564
*1086 net565
*1087 net566
*1088 net567
*1089 net568
*1090 net569
*1091 net57
*1092 net570
*1093 net571
*1094 net572
*1095 net573
*1096 net574
*1097 net575
*1098 net576
*1099 net577
*1100 net578
*1101 net579
*1102 net58
*1103 net580
*1104 net581
*1105 net582
*1106 net583
*1107 net584
*1108 net585
*1109 net586
*1110 net587
*1111 net588
*1112 net589
*1113 net59
*1114 net590
*1115 net591
*1116 net592
*1117 net593
*1118 net594
*1119 net595
*1120 net596
*1121 net597
*1122 net598
*1123 net599
*1124 net6
*1125 net60
*1126 net600
*1127 net601
*1128 net602
*1129 net603
*1130 net604
*1131 net605
*1132 net606
*1133 net607
*1134 net608
*1135 net609
*1136 net61
*1137 net610
*1138 net611
*1139 net612
*1140 net613
*1141 net614
*1142 net615
*1143 net616
*1144 net617
*1145 net618
*1146 net619
*1147 net62
*1148 net620
*1149 net621
*1150 net622
*1151 net623
*1152 net624
*1153 net625
*1154 net626
*1155 net627
*1156 net628
*1157 net629
*1158 net63
*1159 net630
*1160 net631
*1161 net632
*1162 net633
*1163 net634
*1164 net635
*1165 net636
*1166 net637
*1167 net638
*1168 net639
*1169 net64
*1170 net640
*1171 net641
*1172 net642
*1173 net643
*1174 net644
*1175 net645
*1176 net646
*1177 net647
*1178 net648
*1179 net649
*1180 net65
*1181 net650
*1182 net651
*1183 net652
*1184 net653
*1185 net654
*1186 net655
*1187 net656
*1188 net657
*1189 net658
*1190 net659
*1191 net66
*1192 net660
*1193 net661
*1194 net662
*1195 net663
*1196 net664
*1197 net665
*1198 net666
*1199 net667
*1200 net668
*1201 net669
*1202 net67
*1203 net670
*1204 net671
*1205 net672
*1206 net673
*1207 net674
*1208 net675
*1209 net676
*1210 net677
*1211 net678
*1212 net679
*1213 net68
*1214 net680
*1215 net681
*1216 net682
*1217 net683
*1218 net684
*1219 net685
*1220 net686
*1221 net687
*1222 net688
*1223 net689
*1224 net69
*1225 net690
*1226 net691
*1227 net692
*1228 net693
*1229 net694
*1230 net695
*1231 net696
*1232 net697
*1233 net698
*1234 net699
*1235 net7
*1236 net70
*1237 net700
*1238 net701
*1239 net702
*1240 net703
*1241 net704
*1242 net705
*1243 net706
*1244 net707
*1245 net708
*1246 net709
*1247 net71
*1248 net710
*1249 net711
*1250 net712
*1251 net713
*1252 net714
*1253 net715
*1254 net716
*1255 net717
*1256 net718
*1257 net719
*1258 net72
*1259 net720
*1260 net721
*1261 net722
*1262 net723
*1263 net724
*1264 net725
*1265 net726
*1266 net727
*1267 net728
*1268 net729
*1269 net73
*1270 net730
*1271 net731
*1272 net732
*1273 net733
*1274 net734
*1275 net735
*1276 net736
*1277 net737
*1278 net738
*1279 net739
*1280 net74
*1281 net740
*1282 net741
*1283 net742
*1284 net743
*1285 net744
*1286 net745
*1287 net746
*1288 net747
*1289 net748
*1290 net749
*1291 net75
*1292 net750
*1293 net751
*1294 net752
*1295 net753
*1296 net754
*1297 net755
*1298 net756
*1299 net757
*1300 net758
*1301 net759
*1302 net76
*1303 net760
*1304 net761
*1305 net762
*1306 net763
*1307 net764
*1308 net765
*1309 net766
*1310 net767
*1311 net768
*1312 net769
*1313 net77
*1314 net770
*1315 net771
*1316 net772
*1317 net773
*1318 net774
*1319 net775
*1320 net776
*1321 net777
*1322 net778
*1323 net779
*1324 net78
*1325 net780
*1326 net781
*1327 net782
*1328 net783
*1329 net784
*1330 net785
*1331 net786
*1332 net787
*1333 net788
*1334 net789
*1335 net79
*1336 net790
*1337 net791
*1338 net792
*1339 net793
*1340 net794
*1341 net795
*1342 net796
*1343 net797
*1344 net798
*1345 net799
*1346 net8
*1347 net80
*1348 net800
*1349 net801
*1350 net802
*1351 net803
*1352 net804
*1353 net805
*1354 net806
*1355 net807
*1356 net808
*1357 net809
*1358 net81
*1359 net810
*1360 net811
*1361 net812
*1362 net813
*1363 net814
*1364 net815
*1365 net816
*1366 net817
*1367 net818
*1368 net819
*1369 net82
*1370 net820
*1371 net821
*1372 net822
*1373 net823
*1374 net824
*1375 net825
*1376 net826
*1377 net827
*1378 net828
*1379 net829
*1380 net83
*1381 net830
*1382 net831
*1383 net832
*1384 net833
*1385 net834
*1386 net835
*1387 net836
*1388 net837
*1389 net838
*1390 net839
*1391 net84
*1392 net840
*1393 net841
*1394 net842
*1395 net843
*1396 net844
*1397 net845
*1398 net846
*1399 net847
*1400 net848
*1401 net849
*1402 net85
*1403 net850
*1404 net851
*1405 net852
*1406 net853
*1407 net854
*1408 net855
*1409 net856
*1410 net857
*1411 net858
*1412 net859
*1413 net86
*1414 net860
*1415 net861
*1416 net862
*1417 net863
*1418 net864
*1419 net865
*1420 net866
*1421 net867
*1422 net868
*1423 net869
*1424 net87
*1425 net870
*1426 net871
*1427 net872
*1428 net873
*1429 net874
*1430 net875
*1431 net876
*1432 net877
*1433 net878
*1434 net879
*1435 net88
*1436 net880
*1437 net881
*1438 net882
*1439 net883
*1440 net884
*1441 net885
*1442 net886
*1443 net887
*1444 net888
*1445 net889
*1446 net89
*1447 net890
*1448 net891
*1449 net892
*1450 net893
*1451 net894
*1452 net895
*1453 net896
*1454 net897
*1455 net898
*1456 net899
*1457 net9
*1458 net90
*1459 net900
*1460 net901
*1461 net902
*1462 net903
*1463 net904
*1464 net905
*1465 net906
*1466 net907
*1467 net908
*1468 net909
*1469 net91
*1470 net910
*1471 net911
*1472 net912
*1473 net913
*1474 net914
*1475 net915
*1476 net916
*1477 net917
*1478 net918
*1479 net919
*1480 net92
*1481 net920
*1482 net921
*1483 net922
*1484 net923
*1485 net924
*1486 net925
*1487 net926
*1488 net927
*1489 net928
*1490 net929
*1491 net93
*1492 net930
*1493 net931
*1494 net932
*1495 net933
*1496 net934
*1497 net935
*1498 net936
*1499 net937
*1500 net938
*1501 net939
*1502 net94
*1503 net940
*1504 net941
*1505 net942
*1506 net943
*1507 net944
*1508 net945
*1509 net946
*1510 net947
*1511 net948
*1512 net949
*1513 net95
*1514 net950
*1515 net951
*1516 net952
*1517 net953
*1518 net954
*1519 net955
*1520 net956
*1521 net957
*1522 net958
*1523 net959
*1524 net96
*1525 net960
*1526 net961
*1527 net962
*1528 net963
*1529 net964
*1530 net965
*1531 net966
*1532 net967
*1533 net968
*1534 net969
*1535 net97
*1536 net970
*1537 net971
*1538 net972
*1539 net973
*1540 net974
*1541 net975
*1542 net976
*1543 net977
*1544 net978
*1545 net979
*1546 net98
*1547 net980
*1548 net981
*1549 net982
*1550 net983
*1551 net984
*1552 net985
*1553 net986
*1554 net987
*1555 net988
*1556 net989
*1557 net99
*1558 net990
*1559 net991
*1560 net992
*1561 net993
*1562 net994
*1563 net995
*1564 net996
*1565 net997
*1566 net998
*1567 net999
*1568 ANTENNA_1
*1569 ANTENNA_2
*1570 ANTENNA_3
*1571 ANTENNA_c100_A1
*1572 ANTENNA_c100_B1
*1573 ANTENNA_c100_X
*1574 ANTENNA_c102_A1
*1575 ANTENNA_c103_B
*1576 ANTENNA_c104_A2
*1577 ANTENNA_c104_X
*1578 ANTENNA_c105_B1_N
*1579 ANTENNA_c106_X
*1580 ANTENNA_c107_A1
*1581 ANTENNA_c107_A2
*1582 ANTENNA_c107_X
*1583 ANTENNA_c108_A1
*1584 ANTENNA_c108_A2
*1585 ANTENNA_c108_A3
*1586 ANTENNA_c108_X
*1587 ANTENNA_c109_A
*1588 ANTENNA_c109_B
*1589 ANTENNA_c110_A1
*1590 ANTENNA_c110_A2
*1591 ANTENNA_c112_A1
*1592 ANTENNA_c112_A3
*1593 ANTENNA_c112_A4
*1594 ANTENNA_c112_X
*1595 ANTENNA_c114_A
*1596 ANTENNA_c114_B
*1597 ANTENNA_c115_A2
*1598 ANTENNA_c117_B
*1599 ANTENNA_c118_A
*1600 ANTENNA_c118_B
*1601 ANTENNA_c118_Y
*1602 ANTENNA_c119_A1
*1603 ANTENNA_c120_A1
*1604 ANTENNA_c120_A2
*1605 ANTENNA_c120_B1_N
*1606 ANTENNA_c121_X
*1607 ANTENNA_c122_A1
*1608 ANTENNA_c123_A1
*1609 ANTENNA_c125_A2
*1610 ANTENNA_c125_A3
*1611 ANTENNA_c126_A1
*1612 ANTENNA_c126_A4
*1613 ANTENNA_c127_A2
*1614 ANTENNA_c129_A4
*1615 ANTENNA_c130_B
*1616 ANTENNA_c130_Y
*1617 ANTENNA_c131_A2
*1618 ANTENNA_c131_S0
*1619 ANTENNA_c132_A1
*1620 ANTENNA_c132_A2
*1621 ANTENNA_c132_B1_N
*1622 ANTENNA_c132_X
*1623 ANTENNA_c133_A1
*1624 ANTENNA_c133_A2
*1625 ANTENNA_c133_B1_N
*1626 ANTENNA_c134_B
*1627 ANTENNA_c135_A
*1628 ANTENNA_c135_B
*1629 ANTENNA_c136_Y
*1630 ANTENNA_c137_B
*1631 ANTENNA_c137_Y
*1632 ANTENNA_c138_A2
*1633 ANTENNA_c138_B1_N
*1634 ANTENNA_c138_X
*1635 ANTENNA_c139_A2
*1636 ANTENNA_c139_X
*1637 ANTENNA_c140_A1
*1638 ANTENNA_c140_A2
*1639 ANTENNA_c140_B1_N
*1640 ANTENNA_c140_X
*1641 ANTENNA_c141_A2
*1642 ANTENNA_c141_A3
*1643 ANTENNA_c141_B1
*1644 ANTENNA_c142_A1
*1645 ANTENNA_c142_A2
*1646 ANTENNA_c143_A1
*1647 ANTENNA_c143_B1_N
*1648 ANTENNA_c143_X
*1649 ANTENNA_c144_A1
*1650 ANTENNA_c144_A2
*1651 ANTENNA_c145_A1
*1652 ANTENNA_c145_A2
*1653 ANTENNA_c146_A2
*1654 ANTENNA_c146_A3
*1655 ANTENNA_c146_B1
*1656 ANTENNA_c146_X
*1657 ANTENNA_c147_A2
*1658 ANTENNA_c147_A3
*1659 ANTENNA_c147_B1
*1660 ANTENNA_c148_A2
*1661 ANTENNA_c148_A4
*1662 ANTENNA_c148_B1
*1663 ANTENNA_c148_X
*1664 ANTENNA_c149_A2
*1665 ANTENNA_c149_A3
*1666 ANTENNA_c149_S0
*1667 ANTENNA_c149_S1
*1668 ANTENNA_c149_X
*1669 ANTENNA_c150_A0
*1670 ANTENNA_c150_A2
*1671 ANTENNA_c150_A3
*1672 ANTENNA_c150_X
*1673 ANTENNA_c151_A1
*1674 ANTENNA_c151_A3
*1675 ANTENNA_c151_S0
*1676 ANTENNA_c152_A2
*1677 ANTENNA_c152_A3
*1678 ANTENNA_c152_X
*1679 ANTENNA_c153_A2
*1680 ANTENNA_c153_A3
*1681 ANTENNA_c154_A2
*1682 ANTENNA_c154_B1_N
*1683 ANTENNA_c155_A1
*1684 ANTENNA_c155_A2
*1685 ANTENNA_c155_B1_N
*1686 ANTENNA_c155_X
*1687 ANTENNA_c156_A1
*1688 ANTENNA_c156_B1_N
*1689 ANTENNA_c157_A
*1690 ANTENNA_c157_B
*1691 ANTENNA_c157_Y
*1692 ANTENNA_c158_A1
*1693 ANTENNA_c158_B1_N
*1694 ANTENNA_c158_X
*1695 ANTENNA_c159_A1
*1696 ANTENNA_c159_A2
*1697 ANTENNA_c159_B1_N
*1698 ANTENNA_c159_X
*1699 ANTENNA_c160_A0
*1700 ANTENNA_c160_A1
*1701 ANTENNA_c160_S0
*1702 ANTENNA_c160_S1
*1703 ANTENNA_c160_X
*1704 ANTENNA_c161_A1
*1705 ANTENNA_c161_B1
*1706 ANTENNA_c161_X
*1707 ANTENNA_c162_Y
*1708 ANTENNA_c163_A2
*1709 ANTENNA_c163_B1_N
*1710 ANTENNA_c164_A1
*1711 ANTENNA_c164_A2
*1712 ANTENNA_c164_B1_N
*1713 ANTENNA_c164_X
*1714 ANTENNA_c165_A2
*1715 ANTENNA_c165_B1_N
*1716 ANTENNA_c165_X
*1717 ANTENNA_c166_A1
*1718 ANTENNA_c166_A2
*1719 ANTENNA_c166_A3
*1720 ANTENNA_c166_A4
*1721 ANTENNA_c166_X
*1722 ANTENNA_c167_A
*1723 ANTENNA_c167_Y
*1724 ANTENNA_c168_A1
*1725 ANTENNA_c168_B1_N
*1726 ANTENNA_c168_X
*1727 ANTENNA_c169_A1
*1728 ANTENNA_c169_A2
*1729 ANTENNA_c169_A4
*1730 ANTENNA_c169_X
*1731 ANTENNA_c170_A0
*1732 ANTENNA_c170_A2
*1733 ANTENNA_c170_S0
*1734 ANTENNA_c170_S1
*1735 ANTENNA_c170_X
*1736 ANTENNA_c171_A1
*1737 ANTENNA_c171_A3
*1738 ANTENNA_c171_A4
*1739 ANTENNA_c171_B1
*1740 ANTENNA_c172_A2
*1741 ANTENNA_c172_A3
*1742 ANTENNA_c172_B1
*1743 ANTENNA_c172_X
*1744 ANTENNA_c173_A1
*1745 ANTENNA_c173_A2
*1746 ANTENNA_c173_A4
*1747 ANTENNA_c173_B1
*1748 ANTENNA_c173_X
*1749 ANTENNA_c174_A1
*1750 ANTENNA_c174_A2
*1751 ANTENNA_c174_A4
*1752 ANTENNA_c174_B1
*1753 ANTENNA_c175_A1
*1754 ANTENNA_c175_A4
*1755 ANTENNA_c175_B1
*1756 ANTENNA_c175_X
*1757 ANTENNA_c176_A
*1758 ANTENNA_c176_B
*1759 ANTENNA_c177_A1
*1760 ANTENNA_c177_A2
*1761 ANTENNA_c177_B1
*1762 ANTENNA_c178_A
*1763 ANTENNA_c179_A2
*1764 ANTENNA_c179_A3
*1765 ANTENNA_c179_B1
*1766 ANTENNA_c179_X
*1767 ANTENNA_c180_A1
*1768 ANTENNA_c180_A4
*1769 ANTENNA_c180_B1
*1770 ANTENNA_c180_X
*1771 ANTENNA_c181_A2
*1772 ANTENNA_c181_A3
*1773 ANTENNA_c181_B1
*1774 ANTENNA_c181_X
*1775 ANTENNA_c182_A0
*1776 ANTENNA_c182_A1
*1777 ANTENNA_c182_A2
*1778 ANTENNA_c182_A3
*1779 ANTENNA_c182_S0
*1780 ANTENNA_c182_S1
*1781 ANTENNA_c183_A1
*1782 ANTENNA_c183_A2
*1783 ANTENNA_c183_A3
*1784 ANTENNA_c184_Y
*1785 ANTENNA_c185_A1
*1786 ANTENNA_c185_A2
*1787 ANTENNA_c185_B1_N
*1788 ANTENNA_c186_B1
*1789 ANTENNA_c186_X
*1790 ANTENNA_c187_A1
*1791 ANTENNA_c187_B1_N
*1792 ANTENNA_c188_A3
*1793 ANTENNA_c188_A4
*1794 ANTENNA_c188_B1
*1795 ANTENNA_c188_X
*1796 ANTENNA_c189_A1
*1797 ANTENNA_c189_B1_N
*1798 ANTENNA_c189_X
*1799 ANTENNA_c190_A1
*1800 ANTENNA_c190_A2
*1801 ANTENNA_c190_A3
*1802 ANTENNA_c190_A4
*1803 ANTENNA_c190_X
*1804 ANTENNA_c191_A1
*1805 ANTENNA_c191_B1_N
*1806 ANTENNA_c192_A2
*1807 ANTENNA_c192_A3
*1808 ANTENNA_c193_A0
*1809 ANTENNA_c193_A2
*1810 ANTENNA_c193_A3
*1811 ANTENNA_c193_S1
*1812 ANTENNA_c193_X
*1813 ANTENNA_c194_A1
*1814 ANTENNA_c194_A2
*1815 ANTENNA_c195_A3
*1816 ANTENNA_c195_A4
*1817 ANTENNA_c195_B1
*1818 ANTENNA_c195_X
*1819 ANTENNA_c196_A0
*1820 ANTENNA_c196_A1
*1821 ANTENNA_c196_A2
*1822 ANTENNA_c196_S1
*1823 ANTENNA_c196_X
*1824 ANTENNA_c197_A1
*1825 ANTENNA_c197_A2
*1826 ANTENNA_c197_A3
*1827 ANTENNA_c197_S0
*1828 ANTENNA_c197_S1
*1829 ANTENNA_c197_X
*1830 ANTENNA_c198_A2
*1831 ANTENNA_c198_A3
*1832 ANTENNA_c198_A4
*1833 ANTENNA_c198_B1
*1834 ANTENNA_c199_A1
*1835 ANTENNA_c199_A2
*1836 ANTENNA_c199_A3