*SPEF "ieee 1481-1999"
*DESIGN "netlist_1"
*DATE "15:56:23 Friday August 16, 2024"
*VENDOR "The OpenROAD Project"
*PROGRAM "OpenROAD"
*VERSION "d423155d69de7f683a23f6916ead418a615ad4ad"
*DESIGN_FLOW "NAME_SCOPE LOCAL" "PIN_CAP NONE"
*DIVIDER /
*DELIMITER :
*BUS_DELIMITER []
*T_UNIT 1 NS
*C_UNIT 1 PF
*R_UNIT 1 OHM
*L_UNIT 1 HENRY

*NAME_MAP
*3 clk
*4 in0
*5 in1
*6 in10
*7 in11
*8 in12
*9 in13
*10 in14
*11 in15
*12 in16
*13 in17
*14 in18
*15 in19
*16 in2
*17 in20
*18 in21
*19 in22
*20 in23
*21 in24
*22 in25
*23 in26
*24 in27
*25 in28
*26 in29
*27 in3
*28 in30
*29 in31
*30 in32
*31 in33
*32 in34
*33 in35
*34 in36
*35 in37
*36 in38
*37 in39
*38 in4
*39 in40
*40 in41
*41 in42
*42 in43
*43 in44
*44 in45
*45 in46
*46 in47
*47 in48
*48 in49
*49 in5
*50 in50
*51 in51
*52 in52
*53 in53
*54 in54
*55 in55
*56 in56
*57 in57
*58 in58
*59 in59
*60 in6
*61 in60
*62 in61
*63 in7
*64 in8
*65 in9
*66 out0
*67 out1
*68 out10
*69 out11
*70 out12
*71 out13
*72 out14
*73 out15
*74 out16
*75 out17
*76 out18
*77 out19
*78 out2
*79 out20
*80 out21
*81 out22
*82 out23
*83 out24
*84 out25
*85 out26
*86 out27
*87 out28
*88 out29
*89 out3
*90 out30
*91 out31
*92 out32
*93 out33
*94 out34
*95 out35
*96 out36
*97 out37
*98 out38
*99 out39
*100 out4
*101 out40
*102 out41
*103 out42
*104 out43
*105 out44
*106 out45
*107 out46
*108 out47
*109 out48
*110 out49
*111 out5
*112 out50
*113 out51
*114 out52
*115 out53
*116 out54
*117 out55
*118 out56
*119 out57
*120 out58
*121 out59
*122 out6
*123 out60
*124 out61
*125 out7
*126 out8
*127 out9
*128 rst
*129 clknet_0_clk
*130 clknet_0_net170
*131 clknet_0_net177
*132 clknet_0_net179
*133 clknet_0_net180
*134 clknet_0_net186
*135 clknet_0_net276
*136 clknet_0_net281
*137 clknet_0_net389
*138 clknet_0_net391
*139 clknet_0_net398
*140 clknet_0_net420
*141 clknet_0_net495
*142 clknet_0_net502
*143 clknet_0_net511
*144 clknet_0_net532
*145 clknet_0_net577
*146 clknet_0_net595
*147 clknet_0_net600
*148 clknet_0_net602
*149 clknet_0_net608
*150 clknet_0_net610
*151 clknet_0_net611
*152 clknet_0_net615
*153 clknet_0_net709
*154 clknet_0_net710
*155 clknet_0_net711
*156 clknet_0_net744
*157 clknet_0_net758
*158 clknet_0_net759
*159 clknet_0_net775
*160 clknet_0_net776
*161 clknet_0_net777
*162 clknet_0_net796
*163 clknet_0_net797
*164 clknet_0_net798
*165 clknet_0_net817
*166 clknet_0_net818
*167 clknet_0_net879
*168 clknet_0_net901
*169 clknet_0_net902
*170 clknet_0_net905
*171 clknet_0_net910
*172 clknet_0_net911
*173 clknet_0_net924
*174 clknet_1_0__leaf_net170
*175 clknet_1_0__leaf_net177
*176 clknet_1_0__leaf_net179
*177 clknet_1_0__leaf_net180
*178 clknet_1_0__leaf_net186
*179 clknet_1_0__leaf_net276
*180 clknet_1_0__leaf_net281
*181 clknet_1_0__leaf_net389
*182 clknet_1_0__leaf_net391
*183 clknet_1_0__leaf_net398
*184 clknet_1_0__leaf_net420
*185 clknet_1_0__leaf_net495
*186 clknet_1_0__leaf_net502
*187 clknet_1_0__leaf_net511
*188 clknet_1_0__leaf_net532
*189 clknet_1_0__leaf_net577
*190 clknet_1_0__leaf_net595
*191 clknet_1_0__leaf_net600
*192 clknet_1_0__leaf_net602
*193 clknet_1_0__leaf_net608
*194 clknet_1_0__leaf_net610
*195 clknet_1_0__leaf_net611
*196 clknet_1_0__leaf_net615
*197 clknet_1_0__leaf_net709
*198 clknet_1_0__leaf_net710
*199 clknet_1_0__leaf_net711
*200 clknet_1_0__leaf_net744
*201 clknet_1_0__leaf_net758
*202 clknet_1_0__leaf_net759
*203 clknet_1_0__leaf_net775
*204 clknet_1_0__leaf_net776
*205 clknet_1_0__leaf_net777
*206 clknet_1_0__leaf_net796
*207 clknet_1_0__leaf_net797
*208 clknet_1_0__leaf_net798
*209 clknet_1_0__leaf_net817
*210 clknet_1_0__leaf_net818
*211 clknet_1_0__leaf_net879
*212 clknet_1_0__leaf_net901
*213 clknet_1_0__leaf_net902
*214 clknet_1_0__leaf_net905
*215 clknet_1_0__leaf_net910
*216 clknet_1_0__leaf_net911
*217 clknet_1_0__leaf_net924
*218 clknet_1_1__leaf_net170
*219 clknet_1_1__leaf_net177
*220 clknet_1_1__leaf_net179
*221 clknet_1_1__leaf_net180
*222 clknet_1_1__leaf_net186
*223 clknet_1_1__leaf_net276
*224 clknet_1_1__leaf_net281
*225 clknet_1_1__leaf_net389
*226 clknet_1_1__leaf_net391
*227 clknet_1_1__leaf_net398
*228 clknet_1_1__leaf_net420
*229 clknet_1_1__leaf_net495
*230 clknet_1_1__leaf_net502
*231 clknet_1_1__leaf_net511
*232 clknet_1_1__leaf_net532
*233 clknet_1_1__leaf_net577
*234 clknet_1_1__leaf_net595
*235 clknet_1_1__leaf_net600
*236 clknet_1_1__leaf_net602
*237 clknet_1_1__leaf_net608
*238 clknet_1_1__leaf_net610
*239 clknet_1_1__leaf_net611
*240 clknet_1_1__leaf_net615
*241 clknet_1_1__leaf_net709
*242 clknet_1_1__leaf_net710
*243 clknet_1_1__leaf_net711
*244 clknet_1_1__leaf_net744
*245 clknet_1_1__leaf_net758
*246 clknet_1_1__leaf_net759
*247 clknet_1_1__leaf_net775
*248 clknet_1_1__leaf_net776
*249 clknet_1_1__leaf_net777
*250 clknet_1_1__leaf_net796
*251 clknet_1_1__leaf_net797
*252 clknet_1_1__leaf_net798
*253 clknet_1_1__leaf_net817
*254 clknet_1_1__leaf_net818
*255 clknet_1_1__leaf_net879
*256 clknet_1_1__leaf_net901
*257 clknet_1_1__leaf_net902
*258 clknet_1_1__leaf_net905
*259 clknet_1_1__leaf_net910
*260 clknet_1_1__leaf_net911
*261 clknet_1_1__leaf_net924
*262 clknet_4_0_0_clk
*263 clknet_4_10_0_clk
*264 clknet_4_11_0_clk
*265 clknet_4_12_0_clk
*266 clknet_4_13_0_clk
*267 clknet_4_14_0_clk
*268 clknet_4_15_0_clk
*269 clknet_4_1_0_clk
*270 clknet_4_2_0_clk
*271 clknet_4_3_0_clk
*272 clknet_4_4_0_clk
*273 clknet_4_5_0_clk
*274 clknet_4_6_0_clk
*275 clknet_4_7_0_clk
*276 clknet_4_8_0_clk
*277 clknet_4_9_0_clk
*278 net0
*279 net1
*280 net10
*281 net100
*282 net1000
*283 net1001
*284 net1002
*285 net1003
*286 net1004
*287 net1005
*288 net1006
*289 net1007
*290 net1008
*291 net1009
*292 net101
*293 net1010
*294 net1011
*295 net1012
*296 net1013
*297 net1014
*298 net1015
*299 net1016
*300 net1017
*301 net1018
*302 net1019
*303 net102
*304 net1020
*305 net1021
*306 net1022
*307 net1023
*308 net1024
*309 net1025
*310 net1026
*311 net1027
*312 net1028
*313 net1029
*314 net103
*315 net1030
*316 net1031
*317 net1032
*318 net1033
*319 net1034
*320 net1035
*321 net1036
*322 net1037
*323 net1038
*324 net1039
*325 net104
*326 net1040
*327 net1041
*328 net1042
*329 net1043
*330 net1044
*331 net1045
*332 net1046
*333 net1047
*334 net1048
*335 net1049
*336 net105
*337 net1050
*338 net1051
*339 net1052
*340 net1053
*341 net1054
*342 net1055
*343 net1056
*344 net1057
*345 net1058
*346 net1059
*347 net106
*348 net1060
*349 net1061
*350 net1062
*351 net1063
*352 net1064
*353 net1065
*354 net1066
*355 net1067
*356 net1068
*357 net1069
*358 net107
*359 net1070
*360 net1071
*361 net1072
*362 net1073
*363 net1074
*364 net1075
*365 net1076
*366 net1077
*367 net1078
*368 net1079
*369 net108
*370 net1080
*371 net1081
*372 net1082
*373 net1083
*374 net1084
*375 net1085
*376 net1086
*377 net1087
*378 net1088
*379 net1089
*380 net109
*381 net1090
*382 net11
*383 net110
*384 net111
*385 net112
*386 net113
*387 net114
*388 net115
*389 net116
*390 net117
*391 net118
*392 net119
*393 net12
*394 net120
*395 net121
*396 net122
*397 net123
*398 net124
*399 net125
*400 net126
*401 net127
*402 net128
*403 net129
*404 net13
*405 net130
*406 net131
*407 net132
*408 net133
*409 net134
*410 net135
*411 net136
*412 net137
*413 net138
*414 net139
*415 net14
*416 net140
*417 net141
*418 net142
*419 net143
*420 net144
*421 net145
*422 net146
*423 net147
*424 net148
*425 net149
*426 net15
*427 net150
*428 net151
*429 net152
*430 net153
*431 net154
*432 net155
*433 net156
*434 net157
*435 net158
*436 net159
*437 net16
*438 net160
*439 net161
*440 net162
*441 net163
*442 net164
*443 net165
*444 net166
*445 net167
*446 net168
*447 net169
*448 net17
*449 net170
*450 net171
*451 net172
*452 net173
*453 net174
*454 net175
*455 net176
*456 net177
*457 net178
*458 net179
*459 net18
*460 net180
*461 net181
*462 net182
*463 net183
*464 net184
*465 net185
*466 net186
*467 net187
*468 net188
*469 net189
*470 net19
*471 net190
*472 net191
*473 net192
*474 net193
*475 net194
*476 net195
*477 net196
*478 net197
*479 net198
*480 net199
*481 net2
*482 net20
*483 net200
*484 net201
*485 net202
*486 net203
*487 net204
*488 net205
*489 net206
*490 net207
*491 net208
*492 net209
*493 net21
*494 net210
*495 net211
*496 net212
*497 net213
*498 net214
*499 net215
*500 net216
*501 net217
*502 net218
*503 net219
*504 net22
*505 net220
*506 net221
*507 net222
*508 net223
*509 net224
*510 net225
*511 net226
*512 net227
*513 net228
*514 net229
*515 net23
*516 net230
*517 net231
*518 net232
*519 net233
*520 net234
*521 net235
*522 net236
*523 net237
*524 net238
*525 net239
*526 net24
*527 net240
*528 net241
*529 net242
*530 net243
*531 net244
*532 net245
*533 net246
*534 net247
*535 net248
*536 net249
*537 net25
*538 net250
*539 net251
*540 net252
*541 net253
*542 net254
*543 net255
*544 net256
*545 net257
*546 net258
*547 net259
*548 net26
*549 net260
*550 net261
*551 net262
*552 net263
*553 net264
*554 net265
*555 net266
*556 net267
*557 net268
*558 net269
*559 net27
*560 net270
*561 net271
*562 net272
*563 net273
*564 net274
*565 net275
*566 net276
*567 net277
*568 net278
*569 net279
*570 net28
*571 net280
*572 net281
*573 net282
*574 net283
*575 net284
*576 net285
*577 net286
*578 net287
*579 net288
*580 net289
*581 net29
*582 net290
*583 net291
*584 net292
*585 net293
*586 net294
*587 net295
*588 net296
*589 net297
*590 net298
*591 net299
*592 net3
*593 net30
*594 net300
*595 net301
*596 net302
*597 net303
*598 net304
*599 net305
*600 net306
*601 net307
*602 net308
*603 net309
*604 net31
*605 net310
*606 net311
*607 net312
*608 net313
*609 net314
*610 net315
*611 net316
*612 net317
*613 net318
*614 net319
*615 net32
*616 net320
*617 net321
*618 net322
*619 net323
*620 net324
*621 net325
*622 net326
*623 net327
*624 net328
*625 net329
*626 net33
*627 net330
*628 net331
*629 net332
*630 net333
*631 net334
*632 net335
*633 net336
*634 net337
*635 net338
*636 net339
*637 net34
*638 net340
*639 net341
*640 net342
*641 net343
*642 net344
*643 net345
*644 net346
*645 net347
*646 net348
*647 net349
*648 net35
*649 net350
*650 net351
*651 net352
*652 net353
*653 net354
*654 net355
*655 net356
*656 net357
*657 net358
*658 net359
*659 net36
*660 net360
*661 net361
*662 net362
*663 net363
*664 net364
*665 net365
*666 net366
*667 net367
*668 net368
*669 net369
*670 net37
*671 net370
*672 net371
*673 net372
*674 net373
*675 net374
*676 net375
*677 net376
*678 net377
*679 net378
*680 net379
*681 net38
*682 net380
*683 net381
*684 net382
*685 net383
*686 net384
*687 net385
*688 net386
*689 net387
*690 net388
*691 net389
*692 net39
*693 net390
*694 net391
*695 net392
*696 net393
*697 net394
*698 net395
*699 net396
*700 net397
*701 net398
*702 net399
*703 net4
*704 net40
*705 net400
*706 net401
*707 net402
*708 net403
*709 net404
*710 net405
*711 net406
*712 net407
*713 net408
*714 net409
*715 net41
*716 net410
*717 net411
*718 net412
*719 net413
*720 net414
*721 net415
*722 net416
*723 net417
*724 net418
*725 net419
*726 net42
*727 net420
*728 net421
*729 net422
*730 net423
*731 net424
*732 net425
*733 net426
*734 net427
*735 net428
*736 net429
*737 net43
*738 net430
*739 net431
*740 net432
*741 net433
*742 net434
*743 net435
*744 net436
*745 net437
*746 net438
*747 net439
*748 net44
*749 net440
*750 net441
*751 net442
*752 net443
*753 net444
*754 net445
*755 net446
*756 net447
*757 net448
*758 net449
*759 net45
*760 net450
*761 net451
*762 net452
*763 net453
*764 net454
*765 net455
*766 net456
*767 net457
*768 net458
*769 net459
*770 net46
*771 net460
*772 net461
*773 net462
*774 net463
*775 net464
*776 net465
*777 net466
*778 net467
*779 net468
*780 net469
*781 net47
*782 net470
*783 net471
*784 net472
*785 net473
*786 net474
*787 net475
*788 net476
*789 net477
*790 net478
*791 net479
*792 net48
*793 net480
*794 net481
*795 net482
*796 net483
*797 net484
*798 net485
*799 net486
*800 net487
*801 net488
*802 net489
*803 net49
*804 net490
*805 net491
*806 net492
*807 net493
*808 net494
*809 net495
*810 net496
*811 net497
*812 net498
*813 net499
*814 net5
*815 net50
*816 net500
*817 net501
*818 net502
*819 net503
*820 net504
*821 net505
*822 net506
*823 net507
*824 net508
*825 net509
*826 net51
*827 net510
*828 net511
*829 net512
*830 net513
*831 net514
*832 net515
*833 net516
*834 net517
*835 net518
*836 net519
*837 net52
*838 net520
*839 net521
*840 net522
*841 net523
*842 net524
*843 net525
*844 net526
*845 net527
*846 net528
*847 net529
*848 net53
*849 net530
*850 net531
*851 net532
*852 net533
*853 net534
*854 net535
*855 net536
*856 net537
*857 net538
*858 net539
*859 net54
*860 net540
*861 net541
*862 net542
*863 net543
*864 net544
*865 net545
*866 net546
*867 net547
*868 net548
*869 net549
*870 net55
*871 net550
*872 net551
*873 net552
*874 net553
*875 net554
*876 net555
*877 net556
*878 net557
*879 net558
*880 net559
*881 net56
*882 net560
*883 net561
*884 net562
*885 net563
*886 net564
*887 net565
*888 net566
*889 net567
*890 net568
*891 net569
*892 net57
*893 net570
*894 net571
*895 net572
*896 net573
*897 net574
*898 net575
*899 net576
*900 net577
*901 net578
*902 net579
*903 net58
*904 net580
*905 net581
*906 net582
*907 net583
*908 net584
*909 net585
*910 net586
*911 net587
*912 net588
*913 net589
*914 net59
*915 net590
*916 net591
*917 net592
*918 net593
*919 net594
*920 net595
*921 net596
*922 net597
*923 net598
*924 net599
*925 net6
*926 net60
*927 net600
*928 net601
*929 net602
*930 net603
*931 net604
*932 net605
*933 net606
*934 net607
*935 net608
*936 net609
*937 net61
*938 net610
*939 net611
*940 net612
*941 net613
*942 net614
*943 net615
*944 net616
*945 net617
*946 net618
*947 net619
*948 net62
*949 net620
*950 net621
*951 net622
*952 net623
*953 net624
*954 net625
*955 net626
*956 net627
*957 net628
*958 net629
*959 net63
*960 net630
*961 net631
*962 net632
*963 net633
*964 net634
*965 net635
*966 net636
*967 net637
*968 net638
*969 net639
*970 net64
*971 net640
*972 net641
*973 net642
*974 net643
*975 net644
*976 net645
*977 net646
*978 net647
*979 net648
*980 net649
*981 net65
*982 net650
*983 net651
*984 net652
*985 net653
*986 net654
*987 net655
*988 net656
*989 net657
*990 net658
*991 net659
*992 net66
*993 net660
*994 net661
*995 net662
*996 net663
*997 net664
*998 net665
*999 net666
*1000 net667
*1001 net668
*1002 net669
*1003 net67
*1004 net670
*1005 net671
*1006 net672
*1007 net673
*1008 net674
*1009 net675
*1010 net676
*1011 net677
*1012 net678
*1013 net679
*1014 net68
*1015 net680
*1016 net681
*1017 net682
*1018 net683
*1019 net684
*1020 net685
*1021 net686
*1022 net687
*1023 net688
*1024 net689
*1025 net69
*1026 net690
*1027 net691
*1028 net692
*1029 net693
*1030 net694
*1031 net695
*1032 net696
*1033 net697
*1034 net698
*1035 net699
*1036 net7
*1037 net70
*1038 net700
*1039 net701
*1040 net702
*1041 net703
*1042 net704
*1043 net705
*1044 net706
*1045 net707
*1046 net708
*1047 net709
*1048 net71
*1049 net710
*1050 net711
*1051 net712
*1052 net713
*1053 net714
*1054 net715
*1055 net716
*1056 net717
*1057 net718
*1058 net719
*1059 net72
*1060 net720
*1061 net721
*1062 net722
*1063 net723
*1064 net724
*1065 net725
*1066 net726
*1067 net727
*1068 net728
*1069 net729
*1070 net73
*1071 net730
*1072 net731
*1073 net732
*1074 net733
*1075 net734
*1076 net735
*1077 net736
*1078 net737
*1079 net738
*1080 net739
*1081 net74
*1082 net740
*1083 net741
*1084 net742
*1085 net743
*1086 net744
*1087 net745
*1088 net746
*1089 net747
*1090 net748
*1091 net749
*1092 net75
*1093 net750
*1094 net751
*1095 net752
*1096 net753
*1097 net754
*1098 net755
*1099 net756
*1100 net757
*1101 net758
*1102 net759
*1103 net76
*1104 net760
*1105 net761
*1106 net762
*1107 net763
*1108 net764
*1109 net765
*1110 net766
*1111 net767
*1112 net768
*1113 net769
*1114 net77
*1115 net770
*1116 net771
*1117 net772
*1118 net773
*1119 net774
*1120 net775
*1121 net776
*1122 net777
*1123 net778
*1124 net779
*1125 net78
*1126 net780
*1127 net781
*1128 net782
*1129 net783
*1130 net784
*1131 net785
*1132 net786
*1133 net787
*1134 net788
*1135 net789
*1136 net79
*1137 net790
*1138 net791
*1139 net792
*1140 net793
*1141 net794
*1142 net795
*1143 net796
*1144 net797
*1145 net798
*1146 net799
*1147 net8
*1148 net80
*1149 net800
*1150 net801
*1151 net802
*1152 net803
*1153 net804
*1154 net805
*1155 net806
*1156 net807
*1157 net808
*1158 net809
*1159 net81
*1160 net810
*1161 net811
*1162 net812
*1163 net813
*1164 net814
*1165 net815
*1166 net816
*1167 net817
*1168 net818
*1169 net819
*1170 net82
*1171 net820
*1172 net821
*1173 net822
*1174 net823
*1175 net824
*1176 net825
*1177 net826
*1178 net827
*1179 net828
*1180 net829
*1181 net83
*1182 net830
*1183 net831
*1184 net832
*1185 net833
*1186 net834
*1187 net835
*1188 net836
*1189 net837
*1190 net838
*1191 net839
*1192 net84
*1193 net840
*1194 net841
*1195 net842
*1196 net843
*1197 net844
*1198 net845
*1199 net846
*1200 net847
*1201 net848
*1202 net849
*1203 net85
*1204 net850
*1205 net851
*1206 net852
*1207 net853
*1208 net854
*1209 net855
*1210 net856
*1211 net857
*1212 net858
*1213 net859
*1214 net86
*1215 net860
*1216 net861
*1217 net862
*1218 net863
*1219 net864
*1220 net865
*1221 net866
*1222 net867
*1223 net868
*1224 net869
*1225 net87
*1226 net870
*1227 net871
*1228 net872
*1229 net873
*1230 net874
*1231 net875
*1232 net876
*1233 net877
*1234 net878
*1235 net879
*1236 net88
*1237 net880
*1238 net881
*1239 net882
*1240 net883
*1241 net884
*1242 net885
*1243 net886
*1244 net887
*1245 net888
*1246 net889
*1247 net89
*1248 net890
*1249 net891
*1250 net892
*1251 net893
*1252 net894
*1253 net895
*1254 net896
*1255 net897
*1256 net898
*1257 net899
*1258 net9
*1259 net90
*1260 net900
*1261 net901
*1262 net902
*1263 net903
*1264 net904
*1265 net905
*1266 net906
*1267 net907
*1268 net908
*1269 net909
*1270 net91
*1271 net910
*1272 net911
*1273 net912
*1274 net913
*1275 net914
*1276 net915
*1277 net916
*1278 net917
*1279 net918
*1280 net919
*1281 net92
*1282 net920
*1283 net921
*1284 net922
*1285 net923
*1286 net924
*1287 net925
*1288 net926
*1289 net927
*1290 net928
*1291 net929
*1292 net93
*1293 net930
*1294 net931
*1295 net932
*1296 net933
*1297 net934
*1298 net935
*1299 net936
*1300 net937
*1301 net938
*1302 net939
*1303 net94
*1304 net940
*1305 net941
*1306 net942
*1307 net943
*1308 net944
*1309 net945
*1310 net946
*1311 net947
*1312 net948
*1313 net949
*1314 net95
*1315 net950
*1316 net951
*1317 net952
*1318 net953
*1319 net954
*1320 net955
*1321 net956
*1322 net957
*1323 net958
*1324 net959
*1325 net96
*1326 net960
*1327 net961
*1328 net962
*1329 net963
*1330 net964
*1331 net965
*1332 net966
*1333 net967
*1334 net968
*1335 net969
*1336 net97
*1337 net970
*1338 net971
*1339 net972
*1340 net973
*1341 net974
*1342 net975
*1343 net976
*1344 net977
*1345 net978
*1346 net979
*1347 net98
*1348 net980
*1349 net981
*1350 net982
*1351 net983
*1352 net984
*1353 net985
*1354 net986
*1355 net987
*1356 net988
*1357 net989
*1358 net99
*1359 net990
*1360 net991
*1361 net992
*1362 net993
*1363 net994
*1364 net995
*1365 net996
*1366 net997
*1367 net998
*1368 net999
*1369 ANTENNA_1
*1370 ANTENNA_2
*1371 ANTENNA_3
*1372 ANTENNA_4
*1373 ANTENNA_c100_A
*1374 ANTENNA_c100_C
*1375 ANTENNA_c100_X
*1376 ANTENNA_c101_A1
*1377 ANTENNA_c101_A2
*1378 ANTENNA_c101_C1
*1379 ANTENNA_c102_A
*1380 ANTENNA_c102_B
*1381 ANTENNA_c102_C
*1382 ANTENNA_c103_C_N
*1383 ANTENNA_c103_D_N
*1384 ANTENNA_c104_A2
*1385 ANTENNA_c104_S0
*1386 ANTENNA_c104_S1
*1387 ANTENNA_c105_A1
*1388 ANTENNA_c105_A2
*1389 ANTENNA_c105_B1
*1390 ANTENNA_c105_C1
*1391 ANTENNA_c106_A0
*1392 ANTENNA_c106_A3
*1393 ANTENNA_c107_A2
*1394 ANTENNA_c107_D1
*1395 ANTENNA_c107_X
*1396 ANTENNA_c108_S1
*1397 ANTENNA_c110_A0
*1398 ANTENNA_c110_A1
*1399 ANTENNA_c110_A2
*1400 ANTENNA_c110_A3
*1401 ANTENNA_c110_S0
*1402 ANTENNA_c110_S1
*1403 ANTENNA_c111_B
*1404 ANTENNA_c111_C
*1405 ANTENNA_c112_A
*1406 ANTENNA_c112_B
*1407 ANTENNA_c112_D_N
*1408 ANTENNA_c113_A
*1409 ANTENNA_c113_C
*1410 ANTENNA_c113_X
*1411 ANTENNA_c114_A
*1412 ANTENNA_c114_B
*1413 ANTENNA_c114_C
*1414 ANTENNA_c115_C_N
*1415 ANTENNA_c116_A
*1416 ANTENNA_c116_D_N
*1417 ANTENNA_c118_A
*1418 ANTENNA_c118_C
*1419 ANTENNA_c118_X
*1420 ANTENNA_c119_A1
*1421 ANTENNA_c119_A2
*1422 ANTENNA_c119_B1
*1423 ANTENNA_c119_C1
*1424 ANTENNA_c119_D1
*1425 ANTENNA_c120_A1
*1426 ANTENNA_c120_C1
*1427 ANTENNA_c120_D1
*1428 ANTENNA_c121_D1
*1429 ANTENNA_c121_X
*1430 ANTENNA_c122_A
*1431 ANTENNA_c122_B
*1432 ANTENNA_c122_C
*1433 ANTENNA_c123_A2
*1434 ANTENNA_c123_S0
*1435 ANTENNA_c123_S1
*1436 ANTENNA_c124_A
*1437 ANTENNA_c124_C
*1438 ANTENNA_c125_A1
*1439 ANTENNA_c125_C1
*1440 ANTENNA_c126_A2
*1441 ANTENNA_c126_A3
*1442 ANTENNA_c126_S0
*1443 ANTENNA_c126_X
*1444 ANTENNA_c127_A0
*1445 ANTENNA_c127_A2
*1446 ANTENNA_c127_A3
*1447 ANTENNA_c127_S0
*1448 ANTENNA_c127_S1
*1449 ANTENNA_c128_A1
*1450 ANTENNA_c128_B1
*1451 ANTENNA_c129_A1
*1452 ANTENNA_c129_S0
*1453 ANTENNA_c130_S0
*1454 ANTENNA_c131_CLK_N
*1455 ANTENNA_c131_D
*1456 ANTENNA_c131_SCE
*1457 ANTENNA_c132_A
*1458 ANTENNA_c132_B
*1459 ANTENNA_c132_C
*1460 ANTENNA_c133_B
*1461 ANTENNA_c133_C_N
*1462 ANTENNA_c133_D_N
*1463 ANTENNA_c133_X
*1464 ANTENNA_c134_A
*1465 ANTENNA_c134_B
*1466 ANTENNA_c134_C
*1467 ANTENNA_c134_X
*1468 ANTENNA_c135_A
*1469 ANTENNA_c135_B
*1470 ANTENNA_c135_C
*1471 ANTENNA_c135_X
*1472 ANTENNA_c136_A
*1473 ANTENNA_c136_B
*1474 ANTENNA_c136_C
*1475 ANTENNA_c136_X
*1476 ANTENNA_c137_A
*1477 ANTENNA_c137_B
*1478 ANTENNA_c137_C
*1479 ANTENNA_c137_X
*1480 ANTENNA_c138_A
*1481 ANTENNA_c138_B
*1482 ANTENNA_c138_X
*1483 ANTENNA_c139_B
*1484 ANTENNA_c139_C
*1485 ANTENNA_c139_X
*1486 ANTENNA_c140_A
*1487 ANTENNA_c140_B
*1488 ANTENNA_c140_C
*1489 ANTENNA_c141_A1
*1490 ANTENNA_c141_A2
*1491 ANTENNA_c141_B1
*1492 ANTENNA_c141_D1
*1493 ANTENNA_c141_X
*1494 ANTENNA_c142_A1
*1495 ANTENNA_c142_A2
*1496 ANTENNA_c142_B1
*1497 ANTENNA_c142_C1
*1498 ANTENNA_c142_D1
*1499 ANTENNA_c143_A
*1500 ANTENNA_c143_B
*1501 ANTENNA_c143_X
*1502 ANTENNA_c144_A
*1503 ANTENNA_c144_B
*1504 ANTENNA_c144_C
*1505 ANTENNA_c144_X
*1506 ANTENNA_c145_A
*1507 ANTENNA_c145_C
*1508 ANTENNA_c145_X
*1509 ANTENNA_c146_A
*1510 ANTENNA_c146_B
*1511 ANTENNA_c146_C
*1512 ANTENNA_c146_X
*1513 ANTENNA_c147_A0
*1514 ANTENNA_c147_A1
*1515 ANTENNA_c147_A2
*1516 ANTENNA_c147_A3
*1517 ANTENNA_c147_S0
*1518 ANTENNA_c147_S1
*1519 ANTENNA_c147_X
*1520 ANTENNA_c148_A
*1521 ANTENNA_c148_B
*1522 ANTENNA_c148_C
*1523 ANTENNA_c149_A0
*1524 ANTENNA_c149_A1
*1525 ANTENNA_c149_A2
*1526 ANTENNA_c149_A3
*1527 ANTENNA_c149_S0
*1528 ANTENNA_c149_S1
*1529 ANTENNA_c150_A0
*1530 ANTENNA_c150_A1
*1531 ANTENNA_c150_A3
*1532 ANTENNA_c150_S0
*1533 ANTENNA_c150_S1
*1534 ANTENNA_c150_X
*1535 ANTENNA_c151_B
*1536 ANTENNA_c151_X
*1537 ANTENNA_c152_A0
*1538 ANTENNA_c152_A2
*1539 ANTENNA_c152_S0
*1540 ANTENNA_c152_S1
*1541 ANTENNA_c152_X
*1542 ANTENNA_c153_A0
*1543 ANTENNA_c153_A2
*1544 ANTENNA_c153_A3
*1545 ANTENNA_c153_S0
*1546 ANTENNA_c153_S1
*1547 ANTENNA_c153_X
*1548 ANTENNA_c154_A1
*1549 ANTENNA_c154_A2
*1550 ANTENNA_c154_B1
*1551 ANTENNA_c154_C1
*1552 ANTENNA_c154_D1
*1553 ANTENNA_c155_A
*1554 ANTENNA_c155_B
*1555 ANTENNA_c155_C
*1556 ANTENNA_c155_X
*1557 ANTENNA_c156_A
*1558 ANTENNA_c156_B
*1559 ANTENNA_c157_A
*1560 ANTENNA_c157_C_N
*1561 ANTENNA_c157_D_N
*1562 ANTENNA_c157_X
*1563 ANTENNA_c158_A
*1564 ANTENNA_c158_B
*1565 ANTENNA_c158_C_N
*1566 ANTENNA_c158_D_N
*1567 ANTENNA_c159_A2
*1568 ANTENNA_c159_B1
*1569 ANTENNA_c159_C1
*1570 ANTENNA_c159_D1
*1571 ANTENNA_c160_A
*1572 ANTENNA_c160_B
*1573 ANTENNA_c161_B
*1574 ANTENNA_c161_C
*1575 ANTENNA_c161_X
*1576 ANTENNA_c162_A0
*1577 ANTENNA_c162_A2
*1578 ANTENNA_c162_A3
*1579 ANTENNA_c162_S0
*1580 ANTENNA_c162_S1
*1581 ANTENNA_c162_X
*1582 ANTENNA_c163_A1
*1583 ANTENNA_c163_A2
*1584 ANTENNA_c163_B1
*1585 ANTENNA_c163_C1
*1586 ANTENNA_c163_D1
*1587 ANTENNA_c163_X
*1588 ANTENNA_c164_A1
*1589 ANTENNA_c164_A2
*1590 ANTENNA_c164_B1
*1591 ANTENNA_c164_C1
*1592 ANTENNA_c164_D1
*1593 ANTENNA_c165_A1
*1594 ANTENNA_c165_B1
*1595 ANTENNA_c165_C1
*1596 ANTENNA_c165_D1
*1597 ANTENNA_c165_X
*1598 ANTENNA_c166_A1
*1599 ANTENNA_c166_A2
*1600 ANTENNA_c166_B1
*1601 ANTENNA_c166_C1
*1602 ANTENNA_c166_D1
*1603 ANTENNA_c167_C1
*1604 ANTENNA_c167_D1
*1605 ANTENNA_c168_A1
*1606 ANTENNA_c168_C1
*1607 ANTENNA_c168_D1
*1608 ANTENNA_c168_X
*1609 ANTENNA_c169_A0
*1610 ANTENNA_c169_A2
*1611 ANTENNA_c169_S1
*1612 ANTENNA_c170_A2
*1613 ANTENNA_c170_C1
*1614 ANTENNA_c170_X
*1615 ANTENNA_c171_A1
*1616 ANTENNA_c171_B1
*1617 ANTENNA_c171_C1
*1618 ANTENNA_c171_D1
*1619 ANTENNA_c172_A2
*1620 ANTENNA_c172_S1
*1621 ANTENNA_c172_X
*1622 ANTENNA_c173_A1
*1623 ANTENNA_c173_A2
*1624 ANTENNA_c173_A3
*1625 ANTENNA_c173_S0
*1626 ANTENNA_c173_X
*1627 ANTENNA_c174_A1
*1628 ANTENNA_c174_A2
*1629 ANTENNA_c174_A3
*1630 ANTENNA_c174_S1
*1631 ANTENNA_c175_A0
*1632 ANTENNA_c175_A1
*1633 ANTENNA_c175_A3
*1634 ANTENNA_c175_S0
*1635 ANTENNA_c175_X
*1636 ANTENNA_c176_A1
*1637 ANTENNA_c176_B1
*1638 ANTENNA_c176_C1
*1639 ANTENNA_c176_D1
*1640 ANTENNA_c177_B
*1641 ANTENNA_c177_C
*1642 ANTENNA_c177_X
*1643 ANTENNA_c178_B
*1644 ANTENNA_c178_C
*1645 ANTENNA_c178_X
*1646 ANTENNA_c179_A1
*1647 ANTENNA_c179_B1
*1648 ANTENNA_c179_C1
*1649 ANTENNA_c179_D1
*1650 ANTENNA_c179_X
*1651 ANTENNA_c180_A
*1652 ANTENNA_c180_B
*1653 ANTENNA_c180_C
*1654 ANTENNA_c181_A1
*1655 ANTENNA_c181_A2
*1656 ANTENNA_c181_B1
*1657 ANTENNA_c181_C1
*1658 ANTENNA_c181_D1
*1659 ANTENNA_c181_X
*1660 ANTENNA_c182_A
*1661 ANTENNA_c182_B
*1662 ANTENNA_c182_C
*1663 ANTENNA_c182_X
*1664 ANTENNA_c183_B
*1665 ANTENNA_c183_C
*1666 ANTENNA_c184_A2
*1667 ANTENNA_c184_B1
*1668 ANTENNA_c184_C1
*1669 ANTENNA_c184_D1
*1670 ANTENNA_c185_A
*1671 ANTENNA_c185_B
*1672 ANTENNA_c185_C_N
*1673 ANTENNA_c185_X
*1674 ANTENNA_c186_A
*1675 ANTENNA_c186_B
*1676 ANTENNA_c186_X
*1677 ANTENNA_c187_A1
*1678 ANTENNA_c187_A2
*1679 ANTENNA_c187_B1
*1680 ANTENNA_c187_C1
*1681 ANTENNA_c187_D1
*1682 ANTENNA_c188_A
*1683 ANTENNA_c188_B
*1684 ANTENNA_c188_C
*1685 ANTENNA_c189_B
*1686 ANTENNA_c189_C
*1687 ANTENNA_c190_X
*1688 ANTENNA_c191_B1
*1689 ANTENNA_c191_C1
*1690 ANTENNA_c191_D1
*1691 ANTENNA_c192_A1
*1692 ANTENNA_c192_B1
*1693 ANTENNA_c192_C1
*1694 ANTENNA_c192_D1
*1695 ANTENNA_c192_X
*1696 ANTENNA_c193_A1
*1697 ANTENNA_c193_A2
*1698 ANTENNA_c193_C1
*1699 ANTENNA_c194_D1
*1700 ANTENNA_c194_X
*1701 ANTENNA_c195_B
*1702 ANTENNA_c195_C
*1703 ANTENNA_c195_X
*1704 ANTENNA_c196_A2
*1705 ANTENNA_c196_A3
*1706 ANTENNA_c196_S1
*1707 ANTENNA_c196_X
*1708 ANTENNA_c197_S0
*1709 ANTENNA_c197_S1
*1710 ANTENNA_c198_B
*1711 ANTENNA_c198_C
*1712 ANTENNA_c199_B
*1713 ANTENNA_c199_C
*1714 ANTENNA_c199_X
*1715 ANTENNA_c200_A
*1716 ANTENNA_c200_B
*1717 ANTENNA_c200_C
*1718 ANTENNA_c200_X
*1719 ANTENNA_c201_B
*1720 ANTENNA_c201_C
*1721 ANTENNA_c202_A1
*1722 ANTENNA_c202_X
*1723 ANTENNA_c203_D1
*1724 ANTENNA_c204_A1
*1725 ANTENNA_c204_A2
*1726 ANTENNA_c204_B1
*1727 ANTENNA_c204_D1
*1728 ANTENNA_c205_A
*1729 ANTENNA_c205_C
*1730 ANTENNA_c205_X
*1731 ANTENNA_c206_A1
*1732 ANTENNA_c206_A2
*1733 ANTENNA_c206_B1
*1734 ANTENNA_c206_D1
*1735 ANTENNA_c207_A1
*1736 ANTENNA_c207_A2
*1737 ANTENNA_c207_A3
*1738 ANTENNA_c207_S0
*1739 ANTENNA_c208_B
*1740 ANTENNA_c208_C
*1741 ANTENNA_c209_A
*1742 ANTENNA_c209_B
*1743 ANTENNA_c209_C
*1744 ANTENNA_c210_D
*1745 ANTENNA_c210_Q
*1746 ANTENNA_c210_Q_N
*1747 ANTENNA_c210_RESET_B
*1748 ANTENNA_c210_SCD
*1749 ANTENNA_c211_A0
*1750 ANTENNA_c211_A1
*1751 ANTENNA_c211_A2
*1752 ANTENNA_c211_A3
*1753 ANTENNA_c211_S0
*1754 ANTENNA_c211_S1
*1755 ANTENNA_c211_X
*1756 ANTENNA_c212_A1
*1757 ANTENNA_c212_B1
*1758 ANTENNA_c212_C1
*1759 ANTENNA_c212_D1
*1760 ANTENNA_c213_A1
*1761 ANTENNA_c213_S1
*1762 ANTENNA_c213_X
*1763 ANTENNA_c214_A2
*1764 ANTENNA_c214_S0
*1765 ANTENNA_c214_S1
*1766 ANTENNA_c215_A2
*1767 ANTENNA_c215_A3
*1768 ANTENNA_c215_S0
*1769 ANTENNA_c216_A1
*1770 ANTENNA_c216_A2
*1771 ANTENNA_c216_B1
*1772 ANTENNA_c216_X
*1773 ANTENNA_c217_A1
*1774 ANTENNA_c217_A2
*1775 ANTENNA_c217_S0
*1776 ANTENNA_c218_A0
*1777 ANTENNA_c218_A1
*1778 ANTENNA_c218_A2
*1779 ANTENNA_c218_A3
*1780 ANTENNA_c218_S0
*1781 ANTENNA_c219_A1
*1782 ANTENNA_c219_A2
*1783 ANTENNA_c219_A3
*1784 ANTENNA_c219_S1
*1785 ANTENNA_c220_A1
*1786 ANTENNA_c220_A2
*1787 ANTENNA_c220_B1
*1788 ANTENNA_c220_D1
*1789 ANTENNA_c220_X
*1790 ANTENNA_c221_CLK
*1791 ANTENNA_c221_Q
*1792 ANTENNA_c221_Q_N
*1793 ANTENNA_c221_RESET_B
*1794 ANTENNA_c221_SCD
*1795 ANTENNA_c221_SCE
*1796 ANTENNA_c222_A1
*1797 ANTENNA_c222_A2
*1798 ANTENNA_c222_B1
*1799 ANTENNA_c222_C1
*1800 ANTENNA_c222_D1
*1801 ANTENNA_c223_CLK_N
*1802 ANTENNA_c223_RESET_B
*1803 ANTENNA_c223_SCD
*1804 ANTENNA_c223_SCE
*1805 ANTENNA_c223_SET_B
*1806 ANTENNA_c224_A1
*1807 ANTENNA_c224_A2
*1808 ANTENNA_c224_A3
*1809 ANTENNA_c224_S0
*1810 ANTENNA_c225_A1
*1811 ANTENNA_c225_B1
*1812 ANTENNA_c225_C1
*1813 ANTENNA_c225_X
*1814 ANTENNA_c226_A2
*1815 ANTENNA_c226_A3
*1816 ANTENNA_c226_S0
*1817 ANTENNA_c227_A1
*1818 ANTENNA_c227_A2
*1819 ANTENNA_c227_A3
*1820 ANTENNA_c227_S0
*1821 ANTENNA_c228_A1
*1822 ANTENNA_c228_A2
*1823 ANTENNA_c228_A3
*1824 ANTENNA_c228_S0
*1825 ANTENNA_c229_A2
*1826 ANTENNA_c229_A3
*1827 ANTENNA_c229_S0
*1828 ANTENNA_c229_S1
*1829 ANTENNA_c230_A1
*1830 ANTENNA_c230_A2
*1831 ANTENNA_c231_A0
*1832 ANTENNA_c231_A1
*1833 ANTENNA_c231_A2
*1834 ANTENNA_c231_A3
*1835 ANTENNA_c231_S0
*1836 ANTENNA_c231_S1
*1837 ANTENNA_c232_B1
*1838 ANTENNA_c232_C1
*1839 ANTENNA_c232_D1
*1840 ANTENNA_c233_CLK_N
*1841 ANTENNA_c233_Q
*1842 ANTENNA_c233_RESET_B
*1843 ANTENNA_c233_SCD
*1844 ANTENNA_c233_SCE
*1845 ANTENNA_c233_SET_B
*1846 ANTENNA_c234_B1
*1847 ANTENNA_c234_C1
*1848 ANTENNA_c234_D1
*1849 ANTENNA_c235_A1
*1850 ANTENNA_c235_S0
*1851 ANTENNA_c235_S1
*1852 ANTENNA_c236_A1
*1853 ANTENNA_c236_S0
*1854 ANTENNA_c236_X
*1855 ANTENNA_c237_A0
*1856 ANTENNA_c237_A2
*1857 ANTENNA_c237_S0
*1858 ANTENNA_c237_S1
*1859 ANTENNA_c238_A1
*1860 ANTENNA_c238_S0
*1861 ANTENNA_c239_A1
*1862 ANTENNA_c239_S0
*1863 ANTENNA_c240_A1
*1864 ANTENNA_c240_A3
*1865 ANTENNA_c240_S0
*1866 ANTENNA_c241_A1
*1867 ANTENNA_c241_A2
*1868 ANTENNA_c241_A3
*1869 ANTENNA_c241_S0
*1870 ANTENNA_c242_A0
*1871 ANTENNA_c242_A3
*1872 ANTENNA_c242_S0
*1873 ANTENNA_c243_A0
*1874 ANTENNA_c243_A2
*1875 ANTENNA_c243_A3
*1876 ANTENNA_c243_S0
*1877 ANTENNA_c244_A0
*1878 ANTENNA_c244_A2
*1879 ANTENNA_c244_A3
*1880 ANTENNA_c244_S0
*1881 ANTENNA_c244_S1