*SPEF "ieee 1481-1999"
*DESIGN "netlist_0"
*DATE "22:31:46 Saturday August 17, 2024"
*VENDOR "The OpenROAD Project"
*PROGRAM "OpenROAD"
*VERSION "d423155d69de7f683a23f6916ead418a615ad4ad"
*DESIGN_FLOW "NAME_SCOPE LOCAL" "PIN_CAP NONE"
*DIVIDER /
*DELIMITER :
*BUS_DELIMITER []
*T_UNIT 1 NS
*C_UNIT 1 PF
*R_UNIT 1 OHM
*L_UNIT 1 HENRY

*NAME_MAP
*3 clk
*4 in0
*5 in1
*6 in10
*7 in11
*8 in12
*9 in13
*10 in14
*11 in15
*12 in16
*13 in17
*14 in18
*15 in19
*16 in2
*17 in20
*18 in21
*19 in22
*20 in23
*21 in24
*22 in3
*23 in4
*24 in5
*25 in6
*26 in7
*27 in8
*28 in9
*29 out0
*30 out1
*31 out10
*32 out11
*33 out12
*34 out13
*35 out14
*36 out15
*37 out16
*38 out17
*39 out18
*40 out19
*41 out2
*42 out20
*43 out21
*44 out22
*45 out23
*46 out24
*47 out3
*48 out4
*49 out5
*50 out6
*51 out7
*52 out8
*53 out9
*54 rst
*55 clknet_0_clk
*56 clknet_0_net102
*57 clknet_0_net192
*58 clknet_0_net195
*59 clknet_0_net196
*60 clknet_0_net198
*61 clknet_0_net200
*62 clknet_0_net202
*63 clknet_0_net205
*64 clknet_0_net206
*65 clknet_0_net207
*66 clknet_0_net210
*67 clknet_0_net211
*68 clknet_0_net215
*69 clknet_0_net216
*70 clknet_0_net218
*71 clknet_0_net219
*72 clknet_0_net223
*73 clknet_0_net270
*74 clknet_0_net272
*75 clknet_0_net273
*76 clknet_0_net275
*77 clknet_0_net280
*78 clknet_0_net285
*79 clknet_0_net287
*80 clknet_0_net300
*81 clknet_0_net336
*82 clknet_0_net337
*83 clknet_0_net340
*84 clknet_0_net341
*85 clknet_0_net355
*86 clknet_0_net356
*87 clknet_0_net361
*88 clknet_0_net398
*89 clknet_0_net401
*90 clknet_0_net402
*91 clknet_0_net403
*92 clknet_0_net404
*93 clknet_0_net405
*94 clknet_0_net406
*95 clknet_0_net407
*96 clknet_0_net408
*97 clknet_0_net409
*98 clknet_0_net410
*99 clknet_0_net411
*100 clknet_0_net413
*101 clknet_0_net426
*102 clknet_0_net437
*103 clknet_0_net439
*104 clknet_0_net440
*105 clknet_0_net441
*106 clknet_0_net530
*107 clknet_0_net558
*108 clknet_0_net559
*109 clknet_0_net562
*110 clknet_0_net564
*111 clknet_0_net565
*112 clknet_0_net571
*113 clknet_0_net573
*114 clknet_0_net578
*115 clknet_0_net580
*116 clknet_0_net581
*117 clknet_0_net582
*118 clknet_0_net584
*119 clknet_0_net585
*120 clknet_0_net64
*121 clknet_0_net647
*122 clknet_0_net648
*123 clknet_0_net65
*124 clknet_0_net650
*125 clknet_0_net651
*126 clknet_0_net652
*127 clknet_0_net653
*128 clknet_0_net654
*129 clknet_0_net655
*130 clknet_0_net656
*131 clknet_0_net659
*132 clknet_0_net66
*133 clknet_0_net660
*134 clknet_0_net662
*135 clknet_0_net663
*136 clknet_0_net664
*137 clknet_0_net668
*138 clknet_0_net669
*139 clknet_0_net67
*140 clknet_0_net672
*141 clknet_0_net673
*142 clknet_0_net676
*143 clknet_0_net677
*144 clknet_0_net68
*145 clknet_0_net680
*146 clknet_0_net681
*147 clknet_0_net69
*148 clknet_0_net692
*149 clknet_0_net698
*150 clknet_0_net70
*151 clknet_0_net705
*152 clknet_0_net71
*153 clknet_0_net716
*154 clknet_0_net72
*155 clknet_0_net756
*156 clknet_0_net757
*157 clknet_0_net76
*158 clknet_0_net761
*159 clknet_0_net77
*160 clknet_0_net78
*161 clknet_0_net79
*162 clknet_0_net82
*163 clknet_0_net84
*164 clknet_0_net85
*165 clknet_0_net87
*166 clknet_0_net88
*167 clknet_0_net89
*168 clknet_0_net90
*169 clknet_0_net91
*170 clknet_0_net92
*171 clknet_1_0__leaf_net102
*172 clknet_1_0__leaf_net192
*173 clknet_1_0__leaf_net195
*174 clknet_1_0__leaf_net196
*175 clknet_1_0__leaf_net198
*176 clknet_1_0__leaf_net200
*177 clknet_1_0__leaf_net202
*178 clknet_1_0__leaf_net205
*179 clknet_1_0__leaf_net206
*180 clknet_1_0__leaf_net207
*181 clknet_1_0__leaf_net210
*182 clknet_1_0__leaf_net211
*183 clknet_1_0__leaf_net215
*184 clknet_1_0__leaf_net216
*185 clknet_1_0__leaf_net218
*186 clknet_1_0__leaf_net219
*187 clknet_1_0__leaf_net223
*188 clknet_1_0__leaf_net270
*189 clknet_1_0__leaf_net272
*190 clknet_1_0__leaf_net273
*191 clknet_1_0__leaf_net275
*192 clknet_1_0__leaf_net280
*193 clknet_1_0__leaf_net285
*194 clknet_1_0__leaf_net287
*195 clknet_1_0__leaf_net300
*196 clknet_1_0__leaf_net336
*197 clknet_1_0__leaf_net337
*198 clknet_1_0__leaf_net340
*199 clknet_1_0__leaf_net341
*200 clknet_1_0__leaf_net355
*201 clknet_1_0__leaf_net356
*202 clknet_1_0__leaf_net361
*203 clknet_1_0__leaf_net398
*204 clknet_1_0__leaf_net401
*205 clknet_1_0__leaf_net402
*206 clknet_1_0__leaf_net403
*207 clknet_1_0__leaf_net404
*208 clknet_1_0__leaf_net405
*209 clknet_1_0__leaf_net406
*210 clknet_1_0__leaf_net407
*211 clknet_1_0__leaf_net408
*212 clknet_1_0__leaf_net409
*213 clknet_1_0__leaf_net410
*214 clknet_1_0__leaf_net411
*215 clknet_1_0__leaf_net413
*216 clknet_1_0__leaf_net426
*217 clknet_1_0__leaf_net437
*218 clknet_1_0__leaf_net439
*219 clknet_1_0__leaf_net440
*220 clknet_1_0__leaf_net441
*221 clknet_1_0__leaf_net530
*222 clknet_1_0__leaf_net558
*223 clknet_1_0__leaf_net559
*224 clknet_1_0__leaf_net562
*225 clknet_1_0__leaf_net564
*226 clknet_1_0__leaf_net565
*227 clknet_1_0__leaf_net571
*228 clknet_1_0__leaf_net573
*229 clknet_1_0__leaf_net578
*230 clknet_1_0__leaf_net580
*231 clknet_1_0__leaf_net581
*232 clknet_1_0__leaf_net582
*233 clknet_1_0__leaf_net584
*234 clknet_1_0__leaf_net585
*235 clknet_1_0__leaf_net64
*236 clknet_1_0__leaf_net647
*237 clknet_1_0__leaf_net648
*238 clknet_1_0__leaf_net65
*239 clknet_1_0__leaf_net650
*240 clknet_1_0__leaf_net651
*241 clknet_1_0__leaf_net652
*242 clknet_1_0__leaf_net653
*243 clknet_1_0__leaf_net654
*244 clknet_1_0__leaf_net655
*245 clknet_1_0__leaf_net656
*246 clknet_1_0__leaf_net659
*247 clknet_1_0__leaf_net66
*248 clknet_1_0__leaf_net660
*249 clknet_1_0__leaf_net662
*250 clknet_1_0__leaf_net663
*251 clknet_1_0__leaf_net664
*252 clknet_1_0__leaf_net668
*253 clknet_1_0__leaf_net669
*254 clknet_1_0__leaf_net67
*255 clknet_1_0__leaf_net672
*256 clknet_1_0__leaf_net673
*257 clknet_1_0__leaf_net676
*258 clknet_1_0__leaf_net677
*259 clknet_1_0__leaf_net68
*260 clknet_1_0__leaf_net680
*261 clknet_1_0__leaf_net681
*262 clknet_1_0__leaf_net69
*263 clknet_1_0__leaf_net692
*264 clknet_1_0__leaf_net698
*265 clknet_1_0__leaf_net70
*266 clknet_1_0__leaf_net705
*267 clknet_1_0__leaf_net71
*268 clknet_1_0__leaf_net716
*269 clknet_1_0__leaf_net72
*270 clknet_1_0__leaf_net756
*271 clknet_1_0__leaf_net757
*272 clknet_1_0__leaf_net76
*273 clknet_1_0__leaf_net761
*274 clknet_1_0__leaf_net77
*275 clknet_1_0__leaf_net78
*276 clknet_1_0__leaf_net79
*277 clknet_1_0__leaf_net82
*278 clknet_1_0__leaf_net84
*279 clknet_1_0__leaf_net85
*280 clknet_1_0__leaf_net87
*281 clknet_1_0__leaf_net88
*282 clknet_1_0__leaf_net89
*283 clknet_1_0__leaf_net90
*284 clknet_1_0__leaf_net91
*285 clknet_1_0__leaf_net92
*286 clknet_1_1__leaf_net102
*287 clknet_1_1__leaf_net192
*288 clknet_1_1__leaf_net195
*289 clknet_1_1__leaf_net196
*290 clknet_1_1__leaf_net198
*291 clknet_1_1__leaf_net200
*292 clknet_1_1__leaf_net202
*293 clknet_1_1__leaf_net205
*294 clknet_1_1__leaf_net206
*295 clknet_1_1__leaf_net207
*296 clknet_1_1__leaf_net210
*297 clknet_1_1__leaf_net211
*298 clknet_1_1__leaf_net215
*299 clknet_1_1__leaf_net216
*300 clknet_1_1__leaf_net218
*301 clknet_1_1__leaf_net219
*302 clknet_1_1__leaf_net223
*303 clknet_1_1__leaf_net270
*304 clknet_1_1__leaf_net272
*305 clknet_1_1__leaf_net273
*306 clknet_1_1__leaf_net275
*307 clknet_1_1__leaf_net280
*308 clknet_1_1__leaf_net285
*309 clknet_1_1__leaf_net287
*310 clknet_1_1__leaf_net300
*311 clknet_1_1__leaf_net336
*312 clknet_1_1__leaf_net337
*313 clknet_1_1__leaf_net340
*314 clknet_1_1__leaf_net341
*315 clknet_1_1__leaf_net355
*316 clknet_1_1__leaf_net356
*317 clknet_1_1__leaf_net361
*318 clknet_1_1__leaf_net398
*319 clknet_1_1__leaf_net401
*320 clknet_1_1__leaf_net402
*321 clknet_1_1__leaf_net403
*322 clknet_1_1__leaf_net404
*323 clknet_1_1__leaf_net405
*324 clknet_1_1__leaf_net406
*325 clknet_1_1__leaf_net407
*326 clknet_1_1__leaf_net408
*327 clknet_1_1__leaf_net409
*328 clknet_1_1__leaf_net410
*329 clknet_1_1__leaf_net411
*330 clknet_1_1__leaf_net413
*331 clknet_1_1__leaf_net426
*332 clknet_1_1__leaf_net437
*333 clknet_1_1__leaf_net439
*334 clknet_1_1__leaf_net440
*335 clknet_1_1__leaf_net441
*336 clknet_1_1__leaf_net530
*337 clknet_1_1__leaf_net558
*338 clknet_1_1__leaf_net559
*339 clknet_1_1__leaf_net562
*340 clknet_1_1__leaf_net564
*341 clknet_1_1__leaf_net565
*342 clknet_1_1__leaf_net571
*343 clknet_1_1__leaf_net573
*344 clknet_1_1__leaf_net578
*345 clknet_1_1__leaf_net580
*346 clknet_1_1__leaf_net581
*347 clknet_1_1__leaf_net582
*348 clknet_1_1__leaf_net584
*349 clknet_1_1__leaf_net585
*350 clknet_1_1__leaf_net64
*351 clknet_1_1__leaf_net647
*352 clknet_1_1__leaf_net648
*353 clknet_1_1__leaf_net65
*354 clknet_1_1__leaf_net650
*355 clknet_1_1__leaf_net651
*356 clknet_1_1__leaf_net652
*357 clknet_1_1__leaf_net653
*358 clknet_1_1__leaf_net654
*359 clknet_1_1__leaf_net655
*360 clknet_1_1__leaf_net656
*361 clknet_1_1__leaf_net659
*362 clknet_1_1__leaf_net66
*363 clknet_1_1__leaf_net660
*364 clknet_1_1__leaf_net662
*365 clknet_1_1__leaf_net663
*366 clknet_1_1__leaf_net664
*367 clknet_1_1__leaf_net668
*368 clknet_1_1__leaf_net669
*369 clknet_1_1__leaf_net67
*370 clknet_1_1__leaf_net672
*371 clknet_1_1__leaf_net673
*372 clknet_1_1__leaf_net676
*373 clknet_1_1__leaf_net677
*374 clknet_1_1__leaf_net68
*375 clknet_1_1__leaf_net680
*376 clknet_1_1__leaf_net681
*377 clknet_1_1__leaf_net69
*378 clknet_1_1__leaf_net692
*379 clknet_1_1__leaf_net698
*380 clknet_1_1__leaf_net70
*381 clknet_1_1__leaf_net705
*382 clknet_1_1__leaf_net71
*383 clknet_1_1__leaf_net716
*384 clknet_1_1__leaf_net72
*385 clknet_1_1__leaf_net756
*386 clknet_1_1__leaf_net757
*387 clknet_1_1__leaf_net76
*388 clknet_1_1__leaf_net761
*389 clknet_1_1__leaf_net77
*390 clknet_1_1__leaf_net78
*391 clknet_1_1__leaf_net79
*392 clknet_1_1__leaf_net82
*393 clknet_1_1__leaf_net84
*394 clknet_1_1__leaf_net85
*395 clknet_1_1__leaf_net87
*396 clknet_1_1__leaf_net88
*397 clknet_1_1__leaf_net89
*398 clknet_1_1__leaf_net90
*399 clknet_1_1__leaf_net91
*400 clknet_1_1__leaf_net92
*401 clknet_4_0_0_clk
*402 clknet_4_10_0_clk
*403 clknet_4_11_0_clk
*404 clknet_4_12_0_clk
*405 clknet_4_13_0_clk
*406 clknet_4_14_0_clk
*407 clknet_4_15_0_clk
*408 clknet_4_1_0_clk
*409 clknet_4_2_0_clk
*410 clknet_4_3_0_clk
*411 clknet_4_4_0_clk
*412 clknet_4_5_0_clk
*413 clknet_4_6_0_clk
*414 clknet_4_7_0_clk
*415 clknet_4_8_0_clk
*416 clknet_4_9_0_clk
*417 net0
*418 net1
*419 net10
*420 net100
*421 net101
*422 net102
*423 net103
*424 net104
*425 net105
*426 net106
*427 net107
*428 net108
*429 net109
*430 net11
*431 net110
*432 net111
*433 net112
*434 net113
*435 net114
*436 net115
*437 net116
*438 net117
*439 net118
*440 net119
*441 net12
*442 net120
*443 net121
*444 net122
*445 net123
*446 net124
*447 net125
*448 net126
*449 net127
*450 net128
*451 net129
*452 net13
*453 net130
*454 net131
*455 net132
*456 net133
*457 net134
*458 net135
*459 net136
*460 net137
*461 net138
*462 net139
*463 net14
*464 net140
*465 net141
*466 net142
*467 net143
*468 net144
*469 net145
*470 net146
*471 net147
*472 net148
*473 net149
*474 net15
*475 net150
*476 net151
*477 net152
*478 net153
*479 net154
*480 net155
*481 net156
*482 net157
*483 net158
*484 net159
*485 net16
*486 net160
*487 net161
*488 net162
*489 net163
*490 net164
*491 net165
*492 net166
*493 net167
*494 net168
*495 net169
*496 net17
*497 net170
*498 net171
*499 net172
*500 net173
*501 net174
*502 net175
*503 net176
*504 net177
*505 net178
*506 net179
*507 net18
*508 net180
*509 net181
*510 net182
*511 net183
*512 net184
*513 net185
*514 net186
*515 net187
*516 net188
*517 net189
*518 net19
*519 net190
*520 net191
*521 net192
*522 net193
*523 net194
*524 net195
*525 net196
*526 net197
*527 net198
*528 net199
*529 net2
*530 net20
*531 net200
*532 net201
*533 net202
*534 net203
*535 net204
*536 net205
*537 net206
*538 net207
*539 net208
*540 net209
*541 net21
*542 net210
*543 net211
*544 net212
*545 net213
*546 net214
*547 net215
*548 net216
*549 net217
*550 net218
*551 net219
*552 net22
*553 net220
*554 net221
*555 net222
*556 net223
*557 net224
*558 net225
*559 net226
*560 net227
*561 net228
*562 net229
*563 net23
*564 net230
*565 net231
*566 net232
*567 net233
*568 net234
*569 net235
*570 net236
*571 net237
*572 net238
*573 net239
*574 net24
*575 net240
*576 net241
*577 net242
*578 net243
*579 net244
*580 net245
*581 net246
*582 net247
*583 net248
*584 net249
*585 net25
*586 net250
*587 net251
*588 net252
*589 net253
*590 net254
*591 net255
*592 net256
*593 net257
*594 net258
*595 net259
*596 net26
*597 net260
*598 net261
*599 net262
*600 net263
*601 net264
*602 net265
*603 net266
*604 net267
*605 net268
*606 net269
*607 net27
*608 net270
*609 net271
*610 net272
*611 net273
*612 net274
*613 net275
*614 net276
*615 net277
*616 net278
*617 net279
*618 net28
*619 net280
*620 net281
*621 net282
*622 net283
*623 net284
*624 net285
*625 net286
*626 net287
*627 net288
*628 net289
*629 net29
*630 net290
*631 net291
*632 net292
*633 net293
*634 net294
*635 net295
*636 net296
*637 net297
*638 net298
*639 net299
*640 net3
*641 net30
*642 net300
*643 net301
*644 net302
*645 net303
*646 net304
*647 net305
*648 net306
*649 net307
*650 net308
*651 net309
*652 net31
*653 net310
*654 net311
*655 net312
*656 net313
*657 net314
*658 net315
*659 net316
*660 net317
*661 net318
*662 net319
*663 net32
*664 net320
*665 net321
*666 net322
*667 net323
*668 net324
*669 net325
*670 net326
*671 net327
*672 net328
*673 net329
*674 net33
*675 net330
*676 net331
*677 net332
*678 net333
*679 net334
*680 net335
*681 net336
*682 net337
*683 net338
*684 net339
*685 net34
*686 net340
*687 net341
*688 net342
*689 net343
*690 net344
*691 net345
*692 net346
*693 net347
*694 net348
*695 net349
*696 net35
*697 net350
*698 net351
*699 net352
*700 net353
*701 net354
*702 net355
*703 net356
*704 net357
*705 net358
*706 net359
*707 net36
*708 net360
*709 net361
*710 net362
*711 net363
*712 net364
*713 net365
*714 net366
*715 net367
*716 net368
*717 net369
*718 net37
*719 net370
*720 net371
*721 net372
*722 net373
*723 net374
*724 net375
*725 net376
*726 net377
*727 net378
*728 net379
*729 net38
*730 net380
*731 net381
*732 net382
*733 net383
*734 net384
*735 net385
*736 net386
*737 net387
*738 net388
*739 net389
*740 net39
*741 net390
*742 net391
*743 net392
*744 net393
*745 net394
*746 net395
*747 net396
*748 net397
*749 net398
*750 net399
*751 net4
*752 net40
*753 net400
*754 net401
*755 net402
*756 net403
*757 net404
*758 net405
*759 net406
*760 net407
*761 net408
*762 net409
*763 net41
*764 net410
*765 net411
*766 net412
*767 net413
*768 net414
*769 net415
*770 net416
*771 net417
*772 net418
*773 net419
*774 net42
*775 net420
*776 net421
*777 net422
*778 net423
*779 net424
*780 net425
*781 net426
*782 net427
*783 net428
*784 net429
*785 net43
*786 net430
*787 net431
*788 net432
*789 net433
*790 net434
*791 net435
*792 net436
*793 net437
*794 net438
*795 net439
*796 net44
*797 net440
*798 net441
*799 net442
*800 net443
*801 net444
*802 net445
*803 net446
*804 net447
*805 net448
*806 net449
*807 net45
*808 net450
*809 net451
*810 net452
*811 net453
*812 net454
*813 net455
*814 net456
*815 net457
*816 net458
*817 net459
*818 net46
*819 net460
*820 net461
*821 net462
*822 net463
*823 net464
*824 net465
*825 net466
*826 net467
*827 net468
*828 net469
*829 net47
*830 net470
*831 net471
*832 net472
*833 net473
*834 net474
*835 net475
*836 net476
*837 net477
*838 net478
*839 net479
*840 net48
*841 net480
*842 net481
*843 net482
*844 net483
*845 net484
*846 net485
*847 net486
*848 net487
*849 net488
*850 net489
*851 net49
*852 net490
*853 net491
*854 net492
*855 net493
*856 net494
*857 net495
*858 net496
*859 net497
*860 net498
*861 net499
*862 net5
*863 net50
*864 net500
*865 net501
*866 net502
*867 net503
*868 net504
*869 net505
*870 net506
*871 net507
*872 net508
*873 net509
*874 net51
*875 net510
*876 net511
*877 net512
*878 net513
*879 net514
*880 net515
*881 net516
*882 net517
*883 net518
*884 net519
*885 net52
*886 net520
*887 net521
*888 net522
*889 net523
*890 net524
*891 net525
*892 net526
*893 net527
*894 net528
*895 net529
*896 net53
*897 net530
*898 net531
*899 net532
*900 net533
*901 net534
*902 net535
*903 net536
*904 net537
*905 net538
*906 net539
*907 net54
*908 net540
*909 net541
*910 net542
*911 net543
*912 net544
*913 net545
*914 net546
*915 net547
*916 net548
*917 net549
*918 net55
*919 net550
*920 net551
*921 net552
*922 net553
*923 net554
*924 net555
*925 net556
*926 net557
*927 net558
*928 net559
*929 net56
*930 net560
*931 net561
*932 net562
*933 net563
*934 net564
*935 net565
*936 net566
*937 net567
*938 net568
*939 net569
*940 net57
*941 net570
*942 net571
*943 net572
*944 net573
*945 net574
*946 net575
*947 net576
*948 net577
*949 net578
*950 net579
*951 net58
*952 net580
*953 net581
*954 net582
*955 net583
*956 net584
*957 net585
*958 net586
*959 net587
*960 net588
*961 net589
*962 net59
*963 net590
*964 net591
*965 net592
*966 net593
*967 net594
*968 net595
*969 net596
*970 net597
*971 net598
*972 net599
*973 net6
*974 net60
*975 net600
*976 net601
*977 net602
*978 net603
*979 net604
*980 net605
*981 net606
*982 net607
*983 net608
*984 net609
*985 net61
*986 net610
*987 net611
*988 net612
*989 net613
*990 net614
*991 net615
*992 net616
*993 net617
*994 net618
*995 net619
*996 net62
*997 net620
*998 net621
*999 net622
*1000 net623
*1001 net624
*1002 net625
*1003 net626
*1004 net627
*1005 net628
*1006 net629
*1007 net63
*1008 net630
*1009 net631
*1010 net632
*1011 net633
*1012 net634
*1013 net635
*1014 net636
*1015 net637
*1016 net638
*1017 net639
*1018 net64
*1019 net640
*1020 net641
*1021 net642
*1022 net643
*1023 net644
*1024 net645
*1025 net646
*1026 net647
*1027 net648
*1028 net649
*1029 net65
*1030 net650
*1031 net651
*1032 net652
*1033 net653
*1034 net654
*1035 net655
*1036 net656
*1037 net657
*1038 net658
*1039 net659
*1040 net66
*1041 net660
*1042 net661
*1043 net662
*1044 net663
*1045 net664
*1046 net665
*1047 net666
*1048 net667
*1049 net668
*1050 net669
*1051 net67
*1052 net670
*1053 net671
*1054 net672
*1055 net673
*1056 net674
*1057 net675
*1058 net676
*1059 net677
*1060 net678
*1061 net679
*1062 net68
*1063 net680
*1064 net681
*1065 net682
*1066 net683
*1067 net684
*1068 net685
*1069 net686
*1070 net687
*1071 net688
*1072 net689
*1073 net69
*1074 net690
*1075 net691
*1076 net692
*1077 net693
*1078 net694
*1079 net695
*1080 net696
*1081 net697
*1082 net698
*1083 net699
*1084 net7
*1085 net70
*1086 net700
*1087 net701
*1088 net702
*1089 net703
*1090 net704
*1091 net705
*1092 net706
*1093 net707
*1094 net708
*1095 net709
*1096 net71
*1097 net710
*1098 net711
*1099 net712
*1100 net713
*1101 net714
*1102 net715
*1103 net716
*1104 net717
*1105 net718
*1106 net719
*1107 net72
*1108 net720
*1109 net721
*1110 net722
*1111 net723
*1112 net724
*1113 net725
*1114 net726
*1115 net727
*1116 net728
*1117 net729
*1118 net73
*1119 net730
*1120 net731
*1121 net732
*1122 net733
*1123 net734
*1124 net735
*1125 net736
*1126 net737
*1127 net738
*1128 net739
*1129 net74
*1130 net740
*1131 net741
*1132 net742
*1133 net743
*1134 net744
*1135 net745
*1136 net746
*1137 net747
*1138 net748
*1139 net749
*1140 net75
*1141 net750
*1142 net751
*1143 net752
*1144 net753
*1145 net754
*1146 net755
*1147 net756
*1148 net757
*1149 net758
*1150 net759
*1151 net76
*1152 net760
*1153 net761
*1154 net762
*1155 net763
*1156 net764
*1157 net765
*1158 net766
*1159 net767
*1160 net768
*1161 net769
*1162 net77
*1163 net770
*1164 net771
*1165 net772
*1166 net773
*1167 net774
*1168 net775
*1169 net776
*1170 net777
*1171 net778
*1172 net779
*1173 net78
*1174 net780
*1175 net781
*1176 net782
*1177 net783
*1178 net784
*1179 net785
*1180 net786
*1181 net787
*1182 net788
*1183 net789
*1184 net79
*1185 net790
*1186 net791
*1187 net792
*1188 net793
*1189 net794
*1190 net795
*1191 net796
*1192 net797
*1193 net798
*1194 net799
*1195 net8
*1196 net80
*1197 net800
*1198 net801
*1199 net802
*1200 net803
*1201 net804
*1202 net805
*1203 net806
*1204 net807
*1205 net808
*1206 net809
*1207 net81
*1208 net810
*1209 net811
*1210 net812
*1211 net813
*1212 net814
*1213 net815
*1214 net816
*1215 net817
*1216 net818
*1217 net819
*1218 net82
*1219 net820
*1220 net821
*1221 net822
*1222 net823
*1223 net824
*1224 net825
*1225 net826
*1226 net827
*1227 net828
*1228 net829
*1229 net83
*1230 net830
*1231 net831
*1232 net832
*1233 net84
*1234 net85
*1235 net86
*1236 net87
*1237 net88
*1238 net89
*1239 net9
*1240 net90
*1241 net91
*1242 net92
*1243 net93
*1244 net94
*1245 net95
*1246 net96
*1247 net97
*1248 net98
*1249 net99
*1250 ANTENNA_1
*1251 ANTENNA_c115_CLK
*1252 ANTENNA_c117_CLK
*1253 ANTENNA_c118_CLK
*1254 ANTENNA_c119_CLK
*1255 ANTENNA_c122_CLK
*1256 ANTENNA_c123_CLK
*1257 ANTENNA_c156_X
*1258 ANTENNA_c162_S0
*1259 ANTENNA_c163_C
*1260 ANTENNA_c165_CLK
*1261 ANTENNA_c179_C_N
*1262 ANTENNA_c183_CLK
*1263 ANTENNA_c184_CLK
*1264 ANTENNA_c185_CLK
*1265 ANTENNA_c186_CLK
*1266 ANTENNA_c189_GATE_N
*1267 ANTENNA_c190_B
*1268 ANTENNA_c191_GATE_N
*1269 ANTENNA_c192_GATE
*1270 ANTENNA_c193_GATE
*1271 ANTENNA_c228_CLK_N
*1272 ANTENNA_c232_CLK
*1273 ANTENNA_c236_GATE_N
*1274 ANTENNA_c237_GATE_N
*1275 ANTENNA_c238_GATE_N
*1276 ANTENNA_c241_CLK_N
*1277 ANTENNA_c242_CLK_N
*1278 ANTENNA_c263_CLK
*1279 ANTENNA_c270_CLK_N
*1280 ANTENNA_c273_CLK
*1281 ANTENNA_c273_DE
*1282 ANTENNA_c274_B
*1283 ANTENNA_c276_CLK
*1284 ANTENNA_c277_A
*1285 ANTENNA_c281_B
*1286 ANTENNA_c282_CLK
*1287 ANTENNA_c288_CLK
*1288 ANTENNA_c289_CLK
*1289 ANTENNA_c290_CLK
*1290 ANTENNA_c291_CLK
*1291 ANTENNA_c299_CLK
*1292 ANTENNA_c302_CLK
*1293 ANTENNA_c303_CLK_N
*1294 ANTENNA_c305_CLK
*1295 ANTENNA_c311_CLK
*1296 ANTENNA_c313_CLK
*1297 ANTENNA_c314_CLK
*1298 ANTENNA_c317_A
*1299 ANTENNA_c319_CLK
*1300 ANTENNA_c323_CLK
*1301 ANTENNA_c327_CLK_N
*1302 ANTENNA_c329_CLK
*1303 ANTENNA_c378_CLK
*1304 ANTENNA_c381_GATE
*1305 ANTENNA_c413_CLK
*1306 ANTENNA_c415_CLK_N
*1307 ANTENNA_c416_CLK_N
*1308 ANTENNA_c417_CLK_N
*1309 ANTENNA_c419_CLK
*1310 ANTENNA_c427_GATE
*1311 ANTENNA_c42_A
*1312 ANTENNA_c468_X
*1313 ANTENNA_c477_SCE
*1314 ANTENNA_c487_X
*1315 ANTENNA_c491_A
*1316 ANTENNA_c527_B
*1317 ANTENNA_c533_CLK
*1318 ANTENNA_c536_X
*1319 ANTENNA_c537_B
*1320 ANTENNA_c538_B
*1321 ANTENNA_c539_CLK
*1322 ANTENNA_c541_B
*1323 ANTENNA_c542_D_N
*1324 ANTENNA_c543_CLK
*1325 ANTENNA_c545_CLK
*1326 ANTENNA_c546_CLK
*1327 ANTENNA_c558_S0
*1328 ANTENNA_c561_CLK
*1329 ANTENNA_c563_CLK_N
*1330 ANTENNA_c565_A
*1331 ANTENNA_c570_B
*1332 ANTENNA_c597_CLK
*1333 ANTENNA_c598_CLK_N
*1334 ANTENNA_c600_CLK
*1335 ANTENNA_c601_CLK
*1336 ANTENNA_c603_CLK
*1337 ANTENNA_c605_CLK
*1338 ANTENNA_c607_CLK_N
*1339 ANTENNA_c651_B
*1340 ANTENNA_c652_B
*1341 ANTENNA_c659_CLK
*1342 ANTENNA_c662_CLK
*1343 ANTENNA_c668_CLK
*1344 ANTENNA_c669_CLK_N
*1345 ANTENNA_c671_CLK
*1346 ANTENNA_c672_CLK
*1347 ANTENNA_c674_GATE_N
*1348 ANTENNA_c675_CLK
*1349 ANTENNA_c67_X
*1350 ANTENNA_c686_CLK
*1351 ANTENNA_c68_A
*1352 ANTENNA_c695_GATE_N
*1353 ANTENNA_c69_B
*1354 ANTENNA_c705_CLK
*1355 ANTENNA_c70_CLK
*1356 ANTENNA_c714_CLK
*1357 ANTENNA_c71_B
*1358 ANTENNA_c723_CLK
*1359 ANTENNA_c725_CLK_N
*1360 ANTENNA_c728_CLK_N
*1361 ANTENNA_c72_CLK_N
*1362 ANTENNA_c72_SET_B
*1363 ANTENNA_c73_CLK
*1364 ANTENNA_c74_CLK_N
*1365 ANTENNA_c76_D_N
*1366 ANTENNA_c77_CLK
*1367 ANTENNA_c78_CLK_N
*1368 ANTENNA_c79_CLK
*1369 ANTENNA_c80_C
*1370 ANTENNA_c81_CLK
*1371 ANTENNA_c82_S0
*1372 ANTENNA_c83_S0
*1373 ANTENNA_clkbuf_0_clk_A
*1374 ANTENNA_clkbuf_0_clk_X
*1375 ANTENNA_clkbuf_4_0_0_clk_A
*1376 ANTENNA_clkbuf_4_10_0_clk_A
*1377 ANTENNA_clkbuf_4_11_0_clk_A
*1378 ANTENNA_clkbuf_4_11_0_clk_X
*1379 ANTENNA_clkbuf_4_12_0_clk_A
*1380 ANTENNA_clkbuf_4_13_0_clk_A
*1381 ANTENNA_clkbuf_4_14_0_clk_A
*1382 ANTENNA_clkbuf_4_15_0_clk_A
*1383 ANTENNA_clkbuf_4_1_0_clk_A
*1384 ANTENNA_clkbuf_4_1_0_clk_X
*1385 ANTENNA_clkbuf_4_2_0_clk_A
*1386 ANTENNA_clkbuf_4_3_0_clk_A
*1387 ANTENNA_clkbuf_4_3_0_clk_X
*1388 ANTENNA_clkbuf_4_4_0_clk_A
*1389 ANTENNA_clkbuf_4_4_0_clk_X
*1390 ANTENNA_clkbuf_4_5_0_clk_A
*1391 ANTENNA_clkbuf_4_5_0_clk_X
*1392 ANTENNA_clkbuf_4_6_0_clk_A
*1393 ANTENNA_clkbuf_4_6_0_clk_X
*1394 ANTENNA_clkbuf_4_7_0_clk_A
*1395 ANTENNA_clkbuf_4_7_0_clk_X
*1396 ANTENNA_clkbuf_4_8_0_clk_A
*1397 ANTENNA_clkbuf_4_8_0_clk_X
*1398 ANTENNA_clkbuf_4_9_0_clk_A
*1399 ANTENNA_hold48_A
*1400 ANTENNA_input10_A
*1401 ANTENNA_input11_A
*1402 ANTENNA_input12_A
*1403 ANTENNA_input13_A
*1404 ANTENNA_input14_A
*1405 ANTENNA_input15_A
*1406 ANTENNA_input16_A
*1407 ANTENNA_input17_A
*1408 ANTENNA_input18_A
*1409 ANTENNA_input19_A
*1410 ANTENNA_input1_A
*1411 ANTENNA_input20_A
*1412 ANTENNA_input21_A
*1413 ANTENNA_input22_A
*1414 ANTENNA_input23_A
*1415 ANTENNA_input24_A
*1416 ANTENNA_input2_A
*1417 ANTENNA_input3_A
*1418 ANTENNA_input4_A
*1419 ANTENNA_input5_A
*1420 ANTENNA_input6_A
*1421 ANTENNA_input7_A
*1422 ANTENNA_input8_A
*1423 ANTENNA_input9_A
*1424 ANTENNA_output25_A
*1425 ANTENNA_output30_A
*1426 ANTENNA_s732_CLK
*1427 ANTENNA_s733_GATE_N
*1428 ANTENNA_s734_GATE_N
*1429 ANTENNA_s735_GATE
*1430 ANTENNA_s739_GATE
*1431 ANTENNA_s744_CLK
*1432 ANTENNA_s745_CLK
*1433 FILLER_0_0_109
*1434 FILLER_0_0_113
*1435 FILLER_0_0_125
*1436 FILLER_0_0_137
*1437 FILLER_0_0_141
*1438 FILLER_0_0_15
*1439 FILLER_0_0_153
*1440 FILLER_0_0_165
*1441 FILLER_0_0_169
*1442 FILLER_0_0_181
*1443 FILLER_0_0_193
*1444 FILLER_0_0_197
*1445 FILLER_0_0_209
*1446 FILLER_0_0_221
*1447 FILLER_0_0_225
*1448 FILLER_0_0_237
*1449 FILLER_0_0_249
*1450 FILLER_0_0_253
*1451 FILLER_0_0_265
*1452 FILLER_0_0_27
*1453 FILLER_0_0_277
*1454 FILLER_0_0_281
*1455 FILLER_0_0_29
*1456 FILLER_0_0_293
*1457 FILLER_0_0_3
*1458 FILLER_0_0_305
*1459 FILLER_0_0_309
*1460 FILLER_0_0_321
*1461 FILLER_0_0_333
*1462 FILLER_0_0_337
*1463 FILLER_0_0_349
*1464 FILLER_0_0_361
*1465 FILLER_0_0_365
*1466 FILLER_0_0_377
*1467 FILLER_0_0_389
*1468 FILLER_0_0_393
*1469 FILLER_0_0_405
*1470 FILLER_0_0_41
*1471 FILLER_0_0_417
*1472 FILLER_0_0_421
*1473 FILLER_0_0_433
*1474 FILLER_0_0_445
*1475 FILLER_0_0_449
*1476 FILLER_0_0_461
*1477 FILLER_0_0_473
*1478 FILLER_0_0_477
*1479 FILLER_0_0_489
*1480 FILLER_0_0_501
*1481 FILLER_0_0_505
*1482 FILLER_0_0_517
*1483 FILLER_0_0_529
*1484 FILLER_0_0_53
*1485 FILLER_0_0_533
*1486 FILLER_0_0_545
*1487 FILLER_0_0_557
*1488 FILLER_0_0_561
*1489 FILLER_0_0_57
*1490 FILLER_0_0_573
*1491 FILLER_0_0_585
*1492 FILLER_0_0_589
*1493 FILLER_0_0_601
*1494 FILLER_0_0_613
*1495 FILLER_0_0_617
*1496 FILLER_0_0_69
*1497 FILLER_0_0_81
*1498 FILLER_0_0_85
*1499 FILLER_0_0_97
*1500 FILLER_0_100_109
*1501 FILLER_0_100_121
*1502 FILLER_0_100_133
*1503 FILLER_0_100_139
*1504 FILLER_0_100_141
*1505 FILLER_0_100_15
*1506 FILLER_0_100_153
*1507 FILLER_0_100_165
*1508 FILLER_0_100_177
*1509 FILLER_0_100_189
*1510 FILLER_0_100_195
*1511 FILLER_0_100_197
*1512 FILLER_0_100_209
*1513 FILLER_0_100_221
*1514 FILLER_0_100_233
*1515 FILLER_0_100_245
*1516 FILLER_0_100_251
*1517 FILLER_0_100_253
*1518 FILLER_0_100_265
*1519 FILLER_0_100_27
*1520 FILLER_0_100_277
*1521 FILLER_0_100_289
*1522 FILLER_0_100_29
*1523 FILLER_0_100_3
*1524 FILLER_0_100_301
*1525 FILLER_0_100_307
*1526 FILLER_0_100_309
*1527 FILLER_0_100_321
*1528 FILLER_0_100_333
*1529 FILLER_0_100_345
*1530 FILLER_0_100_357
*1531 FILLER_0_100_363
*1532 FILLER_0_100_365
*1533 FILLER_0_100_377
*1534 FILLER_0_100_389
*1535 FILLER_0_100_401
*1536 FILLER_0_100_41
*1537 FILLER_0_100_413
*1538 FILLER_0_100_419
*1539 FILLER_0_100_421
*1540 FILLER_0_100_433
*1541 FILLER_0_100_445
*1542 FILLER_0_100_457
*1543 FILLER_0_100_469
*1544 FILLER_0_100_475
*1545 FILLER_0_100_477
*1546 FILLER_0_100_489
*1547 FILLER_0_100_501
*1548 FILLER_0_100_513
*1549 FILLER_0_100_525
*1550 FILLER_0_100_53
*1551 FILLER_0_100_531
*1552 FILLER_0_100_533
*1553 FILLER_0_100_545
*1554 FILLER_0_100_557
*1555 FILLER_0_100_569
*1556 FILLER_0_100_581
*1557 FILLER_0_100_587
*1558 FILLER_0_100_589
*1559 FILLER_0_100_601
*1560 FILLER_0_100_613
*1561 FILLER_0_100_65
*1562 FILLER_0_100_77
*1563 FILLER_0_100_83
*1564 FILLER_0_100_85
*1565 FILLER_0_100_97
*1566 FILLER_0_101_109
*1567 FILLER_0_101_113
*1568 FILLER_0_101_125
*1569 FILLER_0_101_137
*1570 FILLER_0_101_141
*1571 FILLER_0_101_15
*1572 FILLER_0_101_153
*1573 FILLER_0_101_165
*1574 FILLER_0_101_169
*1575 FILLER_0_101_181
*1576 FILLER_0_101_193
*1577 FILLER_0_101_197
*1578 FILLER_0_101_209
*1579 FILLER_0_101_221
*1580 FILLER_0_101_225
*1581 FILLER_0_101_237
*1582 FILLER_0_101_249
*1583 FILLER_0_101_253
*1584 FILLER_0_101_265
*1585 FILLER_0_101_27
*1586 FILLER_0_101_277
*1587 FILLER_0_101_281
*1588 FILLER_0_101_289
*1589 FILLER_0_101_29
*1590 FILLER_0_101_293
*1591 FILLER_0_101_3
*1592 FILLER_0_101_305
*1593 FILLER_0_101_309
*1594 FILLER_0_101_321
*1595 FILLER_0_101_333
*1596 FILLER_0_101_337
*1597 FILLER_0_101_349
*1598 FILLER_0_101_361
*1599 FILLER_0_101_365
*1600 FILLER_0_101_377
*1601 FILLER_0_101_389
*1602 FILLER_0_101_393
*1603 FILLER_0_101_405
*1604 FILLER_0_101_41
*1605 FILLER_0_101_417
*1606 FILLER_0_101_421
*1607 FILLER_0_101_433
*1608 FILLER_0_101_445
*1609 FILLER_0_101_457
*1610 FILLER_0_101_469
*1611 FILLER_0_101_475
*1612 FILLER_0_101_477
*1613 FILLER_0_101_489
*1614 FILLER_0_101_501
*1615 FILLER_0_101_505
*1616 FILLER_0_101_517
*1617 FILLER_0_101_529
*1618 FILLER_0_101_53
*1619 FILLER_0_101_533
*1620 FILLER_0_101_545
*1621 FILLER_0_101_557
*1622 FILLER_0_101_561
*1623 FILLER_0_101_57
*1624 FILLER_0_101_573
*1625 FILLER_0_101_585
*1626 FILLER_0_101_589
*1627 FILLER_0_101_601
*1628 FILLER_0_101_613
*1629 FILLER_0_101_617
*1630 FILLER_0_101_69
*1631 FILLER_0_101_81
*1632 FILLER_0_101_85
*1633 FILLER_0_101_97
*1634 FILLER_0_10_109
*1635 FILLER_0_10_121
*1636 FILLER_0_10_133
*1637 FILLER_0_10_139
*1638 FILLER_0_10_141
*1639 FILLER_0_10_15
*1640 FILLER_0_10_153
*1641 FILLER_0_10_165
*1642 FILLER_0_10_177
*1643 FILLER_0_10_189
*1644 FILLER_0_10_195
*1645 FILLER_0_10_197
*1646 FILLER_0_10_209
*1647 FILLER_0_10_221
*1648 FILLER_0_10_233
*1649 FILLER_0_10_245
*1650 FILLER_0_10_251
*1651 FILLER_0_10_253
*1652 FILLER_0_10_265
*1653 FILLER_0_10_27
*1654 FILLER_0_10_277
*1655 FILLER_0_10_289
*1656 FILLER_0_10_29
*1657 FILLER_0_10_3
*1658 FILLER_0_10_301
*1659 FILLER_0_10_307
*1660 FILLER_0_10_309
*1661 FILLER_0_10_321
*1662 FILLER_0_10_333
*1663 FILLER_0_10_345
*1664 FILLER_0_10_357
*1665 FILLER_0_10_363
*1666 FILLER_0_10_365
*1667 FILLER_0_10_377
*1668 FILLER_0_10_389