*SPEF "ieee 1481-1999"
*DESIGN "netlist_0"
*DATE "22:24:26 Thursday August 15, 2024"
*VENDOR "The OpenROAD Project"
*PROGRAM "OpenROAD"
*VERSION "d423155d69de7f683a23f6916ead418a615ad4ad"
*DESIGN_FLOW "NAME_SCOPE LOCAL" "PIN_CAP NONE"
*DIVIDER /
*DELIMITER :
*BUS_DELIMITER []
*T_UNIT 1 NS
*C_UNIT 1 PF
*R_UNIT 1 OHM
*L_UNIT 1 HENRY

*NAME_MAP
*3 clk
*4 in0
*5 in1
*6 in10
*7 in11
*8 in12
*9 in13
*10 in14
*11 in15
*12 in16
*13 in17
*14 in18
*15 in19
*16 in2
*17 in20
*18 in21
*19 in22
*20 in23
*21 in24
*22 in25
*23 in26
*24 in27
*25 in28
*26 in29
*27 in3
*28 in30
*29 in31
*30 in32
*31 in33
*32 in34
*33 in35
*34 in36
*35 in37
*36 in38
*37 in39
*38 in4
*39 in40
*40 in41
*41 in42
*42 in43
*43 in44
*44 in45
*45 in46
*46 in47
*47 in48
*48 in49
*49 in5
*50 in50
*51 in51
*52 in52
*53 in53
*54 in54
*55 in55
*56 in56
*57 in57
*58 in58
*59 in59
*60 in6
*61 in60
*62 in61
*63 in62
*64 in63
*65 in64
*66 in65
*67 in66
*68 in67
*69 in68
*70 in69
*71 in7
*72 in70
*73 in71
*74 in72
*75 in73
*76 in74
*77 in75
*78 in76
*79 in77
*80 in78
*81 in79
*82 in8
*83 in80
*84 in81
*85 in82
*86 in83
*87 in84
*88 in85
*89 in86
*90 in87
*91 in88
*92 in89
*93 in9
*94 in90
*95 in91
*96 in92
*97 in93
*98 in94
*99 in95
*100 in96
*101 in97
*102 in98
*103 in99
*104 out0
*105 out1
*106 out10
*107 out11
*108 out12
*109 out13
*110 out14
*111 out15
*112 out16
*113 out17
*114 out18
*115 out19
*116 out2
*117 out20
*118 out21
*119 out22
*120 out23
*121 out24
*122 out25
*123 out26
*124 out27
*125 out28
*126 out29
*127 out3
*128 out30
*129 out31
*130 out32
*131 out33
*132 out34
*133 out35
*134 out36
*135 out37
*136 out38
*137 out39
*138 out4
*139 out40
*140 out41
*141 out42
*142 out43
*143 out44
*144 out45
*145 out46
*146 out47
*147 out48
*148 out49
*149 out5
*150 out50
*151 out51
*152 out52
*153 out53
*154 out54
*155 out55
*156 out56
*157 out57
*158 out58
*159 out59
*160 out6
*161 out60
*162 out61
*163 out62
*164 out63
*165 out64
*166 out65
*167 out66
*168 out67
*169 out68
*170 out69
*171 out7
*172 out70
*173 out71
*174 out72
*175 out73
*176 out74
*177 out75
*178 out76
*179 out77
*180 out78
*181 out79
*182 out8
*183 out80
*184 out81
*185 out82
*186 out83
*187 out84
*188 out85
*189 out86
*190 out87
*191 out88
*192 out89
*193 out9
*194 out90
*195 out91
*196 out92
*197 out93
*198 out94
*199 out95
*200 out96
*201 out97
*202 out98
*203 out99
*204 rst
*205 clknet_0_clk
*206 clknet_0_net100
*207 clknet_0_net1000
*208 clknet_0_net1002
*209 clknet_0_net1003
*210 clknet_0_net102
*211 clknet_0_net1022
*212 clknet_0_net103
*213 clknet_0_net104
*214 clknet_0_net112
*215 clknet_0_net113
*216 clknet_0_net117
*217 clknet_0_net164
*218 clknet_0_net181
*219 clknet_0_net183
*220 clknet_0_net185
*221 clknet_0_net189
*222 clknet_0_net191
*223 clknet_0_net193
*224 clknet_0_net197
*225 clknet_0_net202
*226 clknet_0_net206
*227 clknet_0_net211
*228 clknet_0_net214
*229 clknet_0_net215
*230 clknet_0_net217
*231 clknet_0_net223
*232 clknet_0_net225
*233 clknet_0_net232
*234 clknet_0_net233
*235 clknet_0_net241
*236 clknet_0_net255
*237 clknet_0_net256
*238 clknet_0_net257
*239 clknet_0_net261
*240 clknet_0_net269
*241 clknet_0_net277
*242 clknet_0_net279
*243 clknet_0_net287
*244 clknet_0_net290
*245 clknet_0_net291
*246 clknet_0_net296
*247 clknet_0_net301
*248 clknet_0_net324
*249 clknet_0_net325
*250 clknet_0_net328
*251 clknet_0_net331
*252 clknet_0_net332
*253 clknet_0_net340
*254 clknet_0_net341
*255 clknet_0_net346
*256 clknet_0_net361
*257 clknet_0_net365
*258 clknet_0_net387
*259 clknet_0_net389
*260 clknet_0_net390
*261 clknet_0_net391
*262 clknet_0_net393
*263 clknet_0_net394
*264 clknet_0_net396
*265 clknet_0_net398
*266 clknet_0_net400
*267 clknet_0_net404
*268 clknet_0_net406
*269 clknet_0_net425
*270 clknet_0_net430
*271 clknet_0_net431
*272 clknet_0_net435
*273 clknet_0_net439
*274 clknet_0_net456
*275 clknet_0_net458
*276 clknet_0_net460
*277 clknet_0_net462
*278 clknet_0_net464
*279 clknet_0_net488
*280 clknet_0_net493
*281 clknet_0_net503
*282 clknet_0_net504
*283 clknet_0_net505
*284 clknet_0_net506
*285 clknet_0_net513
*286 clknet_0_net516
*287 clknet_0_net519
*288 clknet_0_net523
*289 clknet_0_net525
*290 clknet_0_net529
*291 clknet_0_net539
*292 clknet_0_net564
*293 clknet_0_net635
*294 clknet_0_net637
*295 clknet_0_net651
*296 clknet_0_net681
*297 clknet_0_net703
*298 clknet_0_net704
*299 clknet_0_net705
*300 clknet_0_net724
*301 clknet_0_net725
*302 clknet_0_net726
*303 clknet_0_net743
*304 clknet_0_net744
*305 clknet_0_net745
*306 clknet_0_net764
*307 clknet_0_net765
*308 clknet_0_net766
*309 clknet_0_net782
*310 clknet_0_net783
*311 clknet_0_net784
*312 clknet_0_net800
*313 clknet_0_net801
*314 clknet_0_net802
*315 clknet_0_net818
*316 clknet_0_net819
*317 clknet_0_net82
*318 clknet_0_net820
*319 clknet_0_net83
*320 clknet_0_net838
*321 clknet_0_net839
*322 clknet_0_net840
*323 clknet_0_net858
*324 clknet_0_net859
*325 clknet_0_net860
*326 clknet_0_net88
*327 clknet_0_net969
*328 clknet_0_net970
*329 clknet_0_net976
*330 clknet_0_net979
*331 clknet_0_net987
*332 clknet_0_net990
*333 clknet_0_net992
*334 clknet_0_net996
*335 clknet_0_net999
*336 clknet_1_0__leaf_net100
*337 clknet_1_0__leaf_net1000
*338 clknet_1_0__leaf_net1002
*339 clknet_1_0__leaf_net1003
*340 clknet_1_0__leaf_net102
*341 clknet_1_0__leaf_net1022
*342 clknet_1_0__leaf_net103
*343 clknet_1_0__leaf_net104
*344 clknet_1_0__leaf_net112
*345 clknet_1_0__leaf_net113
*346 clknet_1_0__leaf_net117
*347 clknet_1_0__leaf_net164
*348 clknet_1_0__leaf_net181
*349 clknet_1_0__leaf_net183
*350 clknet_1_0__leaf_net185
*351 clknet_1_0__leaf_net189
*352 clknet_1_0__leaf_net191
*353 clknet_1_0__leaf_net193
*354 clknet_1_0__leaf_net197
*355 clknet_1_0__leaf_net202
*356 clknet_1_0__leaf_net206
*357 clknet_1_0__leaf_net211
*358 clknet_1_0__leaf_net214
*359 clknet_1_0__leaf_net215
*360 clknet_1_0__leaf_net217
*361 clknet_1_0__leaf_net223
*362 clknet_1_0__leaf_net225
*363 clknet_1_0__leaf_net232
*364 clknet_1_0__leaf_net233
*365 clknet_1_0__leaf_net241
*366 clknet_1_0__leaf_net255
*367 clknet_1_0__leaf_net256
*368 clknet_1_0__leaf_net257
*369 clknet_1_0__leaf_net261
*370 clknet_1_0__leaf_net269
*371 clknet_1_0__leaf_net277
*372 clknet_1_0__leaf_net279
*373 clknet_1_0__leaf_net287
*374 clknet_1_0__leaf_net290
*375 clknet_1_0__leaf_net291
*376 clknet_1_0__leaf_net296
*377 clknet_1_0__leaf_net301
*378 clknet_1_0__leaf_net324
*379 clknet_1_0__leaf_net325
*380 clknet_1_0__leaf_net328
*381 clknet_1_0__leaf_net331
*382 clknet_1_0__leaf_net332
*383 clknet_1_0__leaf_net340
*384 clknet_1_0__leaf_net341
*385 clknet_1_0__leaf_net346
*386 clknet_1_0__leaf_net361
*387 clknet_1_0__leaf_net365
*388 clknet_1_0__leaf_net387
*389 clknet_1_0__leaf_net389
*390 clknet_1_0__leaf_net390
*391 clknet_1_0__leaf_net391
*392 clknet_1_0__leaf_net393
*393 clknet_1_0__leaf_net394
*394 clknet_1_0__leaf_net396
*395 clknet_1_0__leaf_net398
*396 clknet_1_0__leaf_net400
*397 clknet_1_0__leaf_net404
*398 clknet_1_0__leaf_net406
*399 clknet_1_0__leaf_net425
*400 clknet_1_0__leaf_net430
*401 clknet_1_0__leaf_net431
*402 clknet_1_0__leaf_net435
*403 clknet_1_0__leaf_net439
*404 clknet_1_0__leaf_net456
*405 clknet_1_0__leaf_net458
*406 clknet_1_0__leaf_net460
*407 clknet_1_0__leaf_net462
*408 clknet_1_0__leaf_net464
*409 clknet_1_0__leaf_net488
*410 clknet_1_0__leaf_net493
*411 clknet_1_0__leaf_net503
*412 clknet_1_0__leaf_net504
*413 clknet_1_0__leaf_net505
*414 clknet_1_0__leaf_net506
*415 clknet_1_0__leaf_net513
*416 clknet_1_0__leaf_net516
*417 clknet_1_0__leaf_net519
*418 clknet_1_0__leaf_net523
*419 clknet_1_0__leaf_net525
*420 clknet_1_0__leaf_net529
*421 clknet_1_0__leaf_net539
*422 clknet_1_0__leaf_net564
*423 clknet_1_0__leaf_net635
*424 clknet_1_0__leaf_net637
*425 clknet_1_0__leaf_net651
*426 clknet_1_0__leaf_net681
*427 clknet_1_0__leaf_net703
*428 clknet_1_0__leaf_net704
*429 clknet_1_0__leaf_net705
*430 clknet_1_0__leaf_net724
*431 clknet_1_0__leaf_net725
*432 clknet_1_0__leaf_net726
*433 clknet_1_0__leaf_net743
*434 clknet_1_0__leaf_net744
*435 clknet_1_0__leaf_net745
*436 clknet_1_0__leaf_net764
*437 clknet_1_0__leaf_net765
*438 clknet_1_0__leaf_net766
*439 clknet_1_0__leaf_net782
*440 clknet_1_0__leaf_net783
*441 clknet_1_0__leaf_net784
*442 clknet_1_0__leaf_net800
*443 clknet_1_0__leaf_net801
*444 clknet_1_0__leaf_net802
*445 clknet_1_0__leaf_net818
*446 clknet_1_0__leaf_net819
*447 clknet_1_0__leaf_net82
*448 clknet_1_0__leaf_net820
*449 clknet_1_0__leaf_net83
*450 clknet_1_0__leaf_net838
*451 clknet_1_0__leaf_net839
*452 clknet_1_0__leaf_net840
*453 clknet_1_0__leaf_net858
*454 clknet_1_0__leaf_net859
*455 clknet_1_0__leaf_net860
*456 clknet_1_0__leaf_net88
*457 clknet_1_0__leaf_net969
*458 clknet_1_0__leaf_net970
*459 clknet_1_0__leaf_net976
*460 clknet_1_0__leaf_net979
*461 clknet_1_0__leaf_net987
*462 clknet_1_0__leaf_net990
*463 clknet_1_0__leaf_net992
*464 clknet_1_0__leaf_net996
*465 clknet_1_0__leaf_net999
*466 clknet_1_1__leaf_net100
*467 clknet_1_1__leaf_net1000
*468 clknet_1_1__leaf_net1002
*469 clknet_1_1__leaf_net1003
*470 clknet_1_1__leaf_net102
*471 clknet_1_1__leaf_net1022
*472 clknet_1_1__leaf_net103
*473 clknet_1_1__leaf_net104
*474 clknet_1_1__leaf_net112
*475 clknet_1_1__leaf_net113
*476 clknet_1_1__leaf_net117
*477 clknet_1_1__leaf_net164
*478 clknet_1_1__leaf_net181
*479 clknet_1_1__leaf_net183
*480 clknet_1_1__leaf_net185
*481 clknet_1_1__leaf_net189
*482 clknet_1_1__leaf_net191
*483 clknet_1_1__leaf_net193
*484 clknet_1_1__leaf_net197
*485 clknet_1_1__leaf_net202
*486 clknet_1_1__leaf_net206
*487 clknet_1_1__leaf_net211
*488 clknet_1_1__leaf_net214
*489 clknet_1_1__leaf_net215
*490 clknet_1_1__leaf_net217
*491 clknet_1_1__leaf_net223
*492 clknet_1_1__leaf_net225
*493 clknet_1_1__leaf_net232
*494 clknet_1_1__leaf_net233
*495 clknet_1_1__leaf_net241
*496 clknet_1_1__leaf_net255
*497 clknet_1_1__leaf_net256
*498 clknet_1_1__leaf_net257
*499 clknet_1_1__leaf_net261
*500 clknet_1_1__leaf_net269
*501 clknet_1_1__leaf_net277
*502 clknet_1_1__leaf_net279
*503 clknet_1_1__leaf_net287
*504 clknet_1_1__leaf_net290
*505 clknet_1_1__leaf_net291
*506 clknet_1_1__leaf_net296
*507 clknet_1_1__leaf_net301
*508 clknet_1_1__leaf_net324
*509 clknet_1_1__leaf_net325
*510 clknet_1_1__leaf_net328
*511 clknet_1_1__leaf_net331
*512 clknet_1_1__leaf_net332
*513 clknet_1_1__leaf_net340
*514 clknet_1_1__leaf_net341
*515 clknet_1_1__leaf_net346
*516 clknet_1_1__leaf_net361
*517 clknet_1_1__leaf_net365
*518 clknet_1_1__leaf_net387
*519 clknet_1_1__leaf_net389
*520 clknet_1_1__leaf_net390
*521 clknet_1_1__leaf_net391
*522 clknet_1_1__leaf_net393
*523 clknet_1_1__leaf_net394
*524 clknet_1_1__leaf_net396
*525 clknet_1_1__leaf_net398
*526 clknet_1_1__leaf_net400
*527 clknet_1_1__leaf_net404
*528 clknet_1_1__leaf_net406
*529 clknet_1_1__leaf_net425
*530 clknet_1_1__leaf_net430
*531 clknet_1_1__leaf_net431
*532 clknet_1_1__leaf_net435
*533 clknet_1_1__leaf_net439
*534 clknet_1_1__leaf_net456
*535 clknet_1_1__leaf_net458
*536 clknet_1_1__leaf_net460
*537 clknet_1_1__leaf_net462
*538 clknet_1_1__leaf_net464
*539 clknet_1_1__leaf_net488
*540 clknet_1_1__leaf_net493
*541 clknet_1_1__leaf_net503
*542 clknet_1_1__leaf_net504
*543 clknet_1_1__leaf_net505
*544 clknet_1_1__leaf_net506
*545 clknet_1_1__leaf_net513
*546 clknet_1_1__leaf_net516
*547 clknet_1_1__leaf_net519
*548 clknet_1_1__leaf_net523
*549 clknet_1_1__leaf_net525
*550 clknet_1_1__leaf_net529
*551 clknet_1_1__leaf_net539
*552 clknet_1_1__leaf_net564
*553 clknet_1_1__leaf_net635
*554 clknet_1_1__leaf_net637
*555 clknet_1_1__leaf_net651
*556 clknet_1_1__leaf_net681
*557 clknet_1_1__leaf_net703
*558 clknet_1_1__leaf_net704
*559 clknet_1_1__leaf_net705
*560 clknet_1_1__leaf_net724
*561 clknet_1_1__leaf_net725
*562 clknet_1_1__leaf_net726
*563 clknet_1_1__leaf_net743
*564 clknet_1_1__leaf_net744
*565 clknet_1_1__leaf_net745
*566 clknet_1_1__leaf_net764
*567 clknet_1_1__leaf_net765
*568 clknet_1_1__leaf_net766
*569 clknet_1_1__leaf_net782
*570 clknet_1_1__leaf_net783
*571 clknet_1_1__leaf_net784
*572 clknet_1_1__leaf_net800
*573 clknet_1_1__leaf_net801
*574 clknet_1_1__leaf_net802
*575 clknet_1_1__leaf_net818
*576 clknet_1_1__leaf_net819
*577 clknet_1_1__leaf_net82
*578 clknet_1_1__leaf_net820
*579 clknet_1_1__leaf_net83
*580 clknet_1_1__leaf_net838
*581 clknet_1_1__leaf_net839
*582 clknet_1_1__leaf_net840
*583 clknet_1_1__leaf_net858
*584 clknet_1_1__leaf_net859
*585 clknet_1_1__leaf_net860
*586 clknet_1_1__leaf_net88
*587 clknet_1_1__leaf_net969
*588 clknet_1_1__leaf_net970
*589 clknet_1_1__leaf_net976
*590 clknet_1_1__leaf_net979
*591 clknet_1_1__leaf_net987
*592 clknet_1_1__leaf_net990
*593 clknet_1_1__leaf_net992
*594 clknet_1_1__leaf_net996
*595 clknet_1_1__leaf_net999
*596 clknet_2_0__leaf_clk
*597 clknet_2_1__leaf_clk
*598 clknet_2_2__leaf_clk
*599 clknet_2_3__leaf_clk
*600 clknet_leaf_0_clk
*601 clknet_leaf_10_clk
*602 clknet_leaf_11_clk
*603 clknet_leaf_12_clk
*604 clknet_leaf_13_clk
*605 clknet_leaf_14_clk
*606 clknet_leaf_15_clk
*607 clknet_leaf_16_clk
*608 clknet_leaf_17_clk
*609 clknet_leaf_18_clk
*610 clknet_leaf_19_clk
*611 clknet_leaf_1_clk
*612 clknet_leaf_20_clk
*613 clknet_leaf_21_clk
*614 clknet_leaf_22_clk
*615 clknet_leaf_23_clk
*616 clknet_leaf_24_clk
*617 clknet_leaf_25_clk
*618 clknet_leaf_26_clk
*619 clknet_leaf_27_clk
*620 clknet_leaf_28_clk
*621 clknet_leaf_29_clk
*622 clknet_leaf_2_clk
*623 clknet_leaf_30_clk
*624 clknet_leaf_31_clk
*625 clknet_leaf_32_clk
*626 clknet_leaf_33_clk
*627 clknet_leaf_34_clk
*628 clknet_leaf_35_clk
*629 clknet_leaf_36_clk
*630 clknet_leaf_37_clk
*631 clknet_leaf_38_clk
*632 clknet_leaf_39_clk
*633 clknet_leaf_3_clk
*634 clknet_leaf_40_clk
*635 clknet_leaf_41_clk
*636 clknet_leaf_42_clk
*637 clknet_leaf_43_clk
*638 clknet_leaf_44_clk
*639 clknet_leaf_45_clk
*640 clknet_leaf_46_clk
*641 clknet_leaf_4_clk
*642 clknet_leaf_5_clk
*643 clknet_leaf_6_clk
*644 clknet_leaf_7_clk
*645 clknet_leaf_8_clk
*646 clknet_leaf_9_clk
*647 net0
*648 net1
*649 net10
*650 net100
*651 net1000
*652 net1001
*653 net1002
*654 net1003
*655 net1004
*656 net1005
*657 net1006
*658 net1007
*659 net1008
*660 net1009
*661 net101
*662 net1010
*663 net1011
*664 net1012
*665 net1013
*666 net1014
*667 net1015
*668 net1016
*669 net1017
*670 net1018
*671 net1019
*672 net102
*673 net1020
*674 net1021
*675 net1022
*676 net1023
*677 net1024
*678 net1025
*679 net1026
*680 net1027
*681 net1028
*682 net1029
*683 net103
*684 net1030
*685 net1031
*686 net1032
*687 net1033
*688 net1034
*689 net1035
*690 net1036
*691 net1037
*692 net1038
*693 net1039
*694 net104
*695 net1040
*696 net1041
*697 net1042
*698 net1043
*699 net1044
*700 net1045
*701 net1046
*702 net1047
*703 net1048
*704 net1049
*705 net105
*706 net1050
*707 net1051
*708 net1052
*709 net1053
*710 net1054
*711 net1055
*712 net1056
*713 net1057
*714 net1058
*715 net1059
*716 net106
*717 net1060
*718 net1061
*719 net1062
*720 net1063
*721 net1064
*722 net1065
*723 net1066
*724 net1067
*725 net1068
*726 net1069
*727 net107
*728 net1070
*729 net1071
*730 net1072
*731 net1073
*732 net1074
*733 net1075
*734 net1076
*735 net1077
*736 net1078
*737 net1079
*738 net108
*739 net1080
*740 net1081
*741 net1082
*742 net1083
*743 net1084
*744 net1085
*745 net1086
*746 net1087
*747 net1088
*748 net1089
*749 net109
*750 net1090
*751 net1091
*752 net1092
*753 net1093
*754 net1094
*755 net1095
*756 net1096
*757 net1097
*758 net1098
*759 net1099
*760 net11
*761 net110
*762 net1100
*763 net1101
*764 net1102
*765 net1103
*766 net1104
*767 net1105
*768 net1106
*769 net1107
*770 net1108
*771 net1109
*772 net111
*773 net1110
*774 net1111
*775 net1112
*776 net1113
*777 net1114
*778 net1115
*779 net1116
*780 net1117
*781 net1118
*782 net1119
*783 net112
*784 net1120
*785 net1121
*786 net1122
*787 net1123
*788 net1124
*789 net1125
*790 net1126
*791 net1127
*792 net1128
*793 net1129
*794 net113
*795 net1130
*796 net1131
*797 net1132
*798 net1133
*799 net1134
*800 net1135
*801 net1136
*802 net1137
*803 net1138
*804 net1139
*805 net114
*806 net1140
*807 net1141
*808 net1142
*809 net1143
*810 net1144
*811 net1145
*812 net1146
*813 net1147
*814 net1148
*815 net1149
*816 net115
*817 net1150
*818 net1151
*819 net1152
*820 net1153
*821 net1154
*822 net1155
*823 net1156
*824 net1157
*825 net1158
*826 net1159
*827 net116
*828 net1160
*829 net1161
*830 net1162
*831 net1163
*832 net1164
*833 net1165
*834 net1166
*835 net1167
*836 net1168
*837 net1169
*838 net117
*839 net1170
*840 net1171
*841 net1172
*842 net1173
*843 net1174
*844 net118
*845 net119
*846 net12
*847 net120
*848 net121
*849 net122
*850 net123
*851 net124
*852 net125
*853 net126
*854 net127
*855 net128
*856 net129
*857 net13
*858 net130
*859 net131
*860 net132
*861 net133
*862 net134
*863 net135
*864 net136
*865 net137
*866 net138
*867 net139
*868 net14
*869 net140
*870 net141
*871 net142
*872 net143
*873 net144
*874 net145
*875 net146
*876 net147
*877 net148
*878 net149
*879 net15
*880 net150
*881 net151
*882 net152
*883 net153
*884 net154
*885 net155
*886 net156
*887 net157
*888 net158
*889 net159
*890 net16
*891 net160
*892 net161
*893 net162
*894 net163
*895 net164
*896 net165
*897 net166
*898 net167
*899 net168
*900 net169
*901 net17
*902 net170
*903 net171
*904 net172
*905 net173
*906 net174
*907 net175
*908 net176
*909 net177
*910 net178
*911 net179
*912 net18
*913 net180
*914 net181
*915 net182
*916 net183
*917 net184
*918 net185
*919 net186
*920 net187
*921 net188
*922 net189
*923 net19
*924 net190
*925 net191
*926 net192
*927 net193
*928 net194
*929 net195
*930 net196
*931 net197
*932 net198
*933 net199
*934 net2
*935 net20
*936 net200
*937 net201
*938 net202
*939 net203
*940 net204
*941 net205
*942 net206
*943 net207
*944 net208
*945 net209
*946 net21
*947 net210
*948 net211
*949 net212
*950 net213
*951 net214
*952 net215
*953 net216
*954 net217
*955 net218
*956 net219
*957 net22
*958 net220
*959 net221
*960 net222
*961 net223
*962 net224
*963 net225
*964 net226
*965 net227
*966 net228
*967 net229
*968 net23
*969 net230
*970 net231
*971 net232
*972 net233
*973 net234
*974 net235
*975 net236
*976 net237
*977 net238
*978 net239
*979 net24
*980 net240
*981 net241
*982 net242
*983 net243
*984 net244
*985 net245
*986 net246
*987 net247
*988 net248
*989 net249
*990 net25
*991 net250
*992 net251
*993 net252
*994 net253
*995 net254
*996 net255
*997 net256
*998 net257
*999 net258
*1000 net259
*1001 net26
*1002 net260
*1003 net261
*1004 net262
*1005 net263
*1006 net264
*1007 net265
*1008 net266
*1009 net267
*1010 net268
*1011 net269
*1012 net27
*1013 net270
*1014 net271
*1015 net272
*1016 net273
*1017 net274
*1018 net275
*1019 net276
*1020 net277
*1021 net278
*1022 net279
*1023 net28
*1024 net280
*1025 net281
*1026 net282
*1027 net283
*1028 net284
*1029 net285
*1030 net286
*1031 net287
*1032 net288
*1033 net289
*1034 net29
*1035 net290
*1036 net291
*1037 net292
*1038 net293
*1039 net294
*1040 net295
*1041 net296
*1042 net297
*1043 net298
*1044 net299
*1045 net3
*1046 net30
*1047 net300
*1048 net301
*1049 net302
*1050 net303
*1051 net304
*1052 net305
*1053 net306
*1054 net307
*1055 net308
*1056 net309
*1057 net31
*1058 net310
*1059 net311
*1060 net312
*1061 net313
*1062 net314
*1063 net315
*1064 net316
*1065 net317
*1066 net318
*1067 net319
*1068 net32
*1069 net320
*1070 net321
*1071 net322
*1072 net323
*1073 net324
*1074 net325
*1075 net326
*1076 net327
*1077 net328
*1078 net329
*1079 net33
*1080 net330
*1081 net331
*1082 net332
*1083 net333
*1084 net334
*1085 net335
*1086 net336
*1087 net337
*1088 net338
*1089 net339
*1090 net34
*1091 net340
*1092 net341
*1093 net342
*1094 net343
*1095 net344
*1096 net345
*1097 net346
*1098 net347
*1099 net348
*1100 net349
*1101 net35
*1102 net350
*1103 net351
*1104 net352
*1105 net353
*1106 net354
*1107 net355
*1108 net356
*1109 net357
*1110 net358
*1111 net359
*1112 net36
*1113 net360
*1114 net361
*1115 net362
*1116 net363
*1117 net364
*1118 net365
*1119 net366
*1120 net367
*1121 net368
*1122 net369
*1123 net37
*1124 net370
*1125 net371
*1126 net372
*1127 net373
*1128 net374
*1129 net375
*1130 net376
*1131 net377
*1132 net378
*1133 net379
*1134 net38
*1135 net380
*1136 net381
*1137 net382
*1138 net383
*1139 net384
*1140 net385
*1141 net386
*1142 net387
*1143 net388
*1144 net389
*1145 net39
*1146 net390
*1147 net391
*1148 net392
*1149 net393
*1150 net394
*1151 net395
*1152 net396
*1153 net397
*1154 net398
*1155 net399
*1156 net4
*1157 net40
*1158 net400
*1159 net401
*1160 net402
*1161 net403
*1162 net404
*1163 net405
*1164 net406
*1165 net407
*1166 net408
*1167 net409
*1168 net41
*1169 net410
*1170 net411
*1171 net412
*1172 net413
*1173 net414
*1174 net415
*1175 net416
*1176 net417
*1177 net418
*1178 net419
*1179 net42
*1180 net420
*1181 net421
*1182 net422
*1183 net423
*1184 net424
*1185 net425
*1186 net426
*1187 net427
*1188 net428
*1189 net429
*1190 net43
*1191 net430
*1192 net431
*1193 net432
*1194 net433
*1195 net434
*1196 net435
*1197 net436
*1198 net437
*1199 net438
*1200 net439
*1201 net44
*1202 net440
*1203 net441
*1204 net442
*1205 net443
*1206 net444
*1207 net445
*1208 net446
*1209 net447
*1210 net448
*1211 net449
*1212 net45
*1213 net450
*1214 net451
*1215 net452
*1216 net453
*1217 net454
*1218 net455
*1219 net456
*1220 net457
*1221 net458
*1222 net459
*1223 net46
*1224 net460
*1225 net461
*1226 net462
*1227 net463
*1228 net464
*1229 net465
*1230 net466
*1231 net467
*1232 net468
*1233 net469
*1234 net47
*1235 net470
*1236 net471
*1237 net472
*1238 net473
*1239 net474
*1240 net475
*1241 net476
*1242 net477
*1243 net478
*1244 net479
*1245 net48
*1246 net480
*1247 net481
*1248 net482
*1249 net483
*1250 net484
*1251 net485
*1252 net486
*1253 net487
*1254 net488
*1255 net489
*1256 net49
*1257 net490
*1258 net491
*1259 net492
*1260 net493
*1261 net494
*1262 net495
*1263 net496
*1264 net497
*1265 net498
*1266 net499
*1267 net5
*1268 net50
*1269 net500
*1270 net501
*1271 net502
*1272 net503
*1273 net504
*1274 net505
*1275 net506
*1276 net507
*1277 net508
*1278 net509
*1279 net51
*1280 net510
*1281 net511
*1282 net512
*1283 net513
*1284 net514
*1285 net515
*1286 net516
*1287 net517
*1288 net518
*1289 net519
*1290 net52
*1291 net520
*1292 net521
*1293 net522
*1294 net523
*1295 net524
*1296 net525
*1297 net526
*1298 net527
*1299 net528
*1300 net529
*1301 net53
*1302 net530
*1303 net531
*1304 net532
*1305 net533
*1306 net534
*1307 net535
*1308 net536
*1309 net537
*1310 net538
*1311 net539
*1312 net54
*1313 net540
*1314 net541
*1315 net542
*1316 net543
*1317 net544
*1318 net545
*1319 net546
*1320 net547
*1321 net548
*1322 net549
*1323 net55
*1324 net550
*1325 net551
*1326 net552
*1327 net553
*1328 net554
*1329 net555
*1330 net556
*1331 net557
*1332 net558
*1333 net559
*1334 net56
*1335 net560
*1336 net561
*1337 net562
*1338 net563
*1339 net564
*1340 net565
*1341 net566
*1342 net567
*1343 net568
*1344 net569
*1345 net57
*1346 net570
*1347 net571
*1348 net572
*1349 net573
*1350 net574
*1351 net575
*1352 net576
*1353 net577
*1354 net578
*1355 net579
*1356 net58
*1357 net580
*1358 net581
*1359 net582
*1360 net583
*1361 net584
*1362 net585
*1363 net586
*1364 net587
*1365 net588
*1366 net589
*1367 net59
*1368 net590
*1369 net591
*1370 net592
*1371 net593
*1372 net594
*1373 net595
*1374 net596
*1375 net597
*1376 net598
*1377 net599
*1378 net6
*1379 net60
*1380 net600
*1381 net601
*1382 net602
*1383 net603
*1384 net604
*1385 net605
*1386 net606
*1387 net607
*1388 net608
*1389 net609
*1390 net61
*1391 net610
*1392 net611
*1393 net612
*1394 net613
*1395 net614
*1396 net615
*1397 net616
*1398 net617
*1399 net618
*1400 net619
*1401 net62
*1402 net620
*1403 net621
*1404 net622
*1405 net623
*1406 net624
*1407 net625
*1408 net626
*1409 net627
*1410 net628
*1411 net629
*1412 net63
*1413 net630
*1414 net631
*1415 net632
*1416 net633
*1417 net634
*1418 net635
*1419 net636
*1420 net637
*1421 net638
*1422 net639
*1423 net64
*1424 net640
*1425 net641
*1426 net642
*1427 net643
*1428 net644
*1429 net645
*1430 net646
*1431 net647
*1432 net648
*1433 net649
*1434 net65
*1435 net650
*1436 net651
*1437 net652
*1438 net653
*1439 net654
*1440 net655
*1441 net656
*1442 net657
*1443 net658
*1444 net659
*1445 net66
*1446 net660
*1447 net661
*1448 net662
*1449 net663
*1450 net664
*1451 net665
*1452 net666
*1453 net667
*1454 net668
*1455 net669
*1456 net67
*1457 net670
*1458 net671
*1459 net672
*1460 net673
*1461 net674
*1462 net675
*1463 net676
*1464 net677
*1465 net678
*1466 net679
*1467 net68
*1468 net680
*1469 net681
*1470 net682
*1471 net683
*1472 net684
*1473 net685
*1474 net686
*1475 net687
*1476 net688
*1477 net689
*1478 net69
*1479 net690
*1480 net691
*1481 net692
*1482 net693
*1483 net694
*1484 net695
*1485 net696
*1486 net697
*1487 net698
*1488 net699
*1489 net7
*1490 net70
*1491 net700
*1492 net701
*1493 net702
*1494 net703
*1495 net704
*1496 net705
*1497 net706
*1498 net707
*1499 net708
*1500 net709
*1501 net71
*1502 net710
*1503 net711
*1504 net712
*1505 net713
*1506 net714
*1507 net715
*1508 net716
*1509 net717
*1510 net718
*1511 net719
*1512 net72
*1513 net720
*1514 net721
*1515 net722
*1516 net723
*1517 net724
*1518 net725
*1519 net726
*1520 net727
*1521 net728
*1522 net729
*1523 net73
*1524 net730
*1525 net731
*1526 net732
*1527 net733
*1528 net734
*1529 net735
*1530 net736
*1531 net737
*1532 net738
*1533 net739
*1534 net74
*1535 net740
*1536 net741
*1537 net742
*1538 net743
*1539 net744
*1540 net745
*1541 net746
*1542 net747
*1543 net748
*1544 net749
*1545 net75
*1546 net750
*1547 net751
*1548 net752
*1549 net753
*1550 net754
*1551 net755
*1552 net756
*1553 net757
*1554 net758
*1555 net759
*1556 net76
*1557 net760
*1558 net761
*1559 net762
*1560 net763
*1561 net764
*1562 net765
*1563 net766
*1564 net767
*1565 net768
*1566 net769
*1567 net77
*1568 net770
*1569 net771
*1570 net772
*1571 net773
*1572 net774
*1573 net775
*1574 net776
*1575 net777
*1576 net778
*1577 net779
*1578 net78
*1579 net780
*1580 net781
*1581 net782
*1582 net783
*1583 net784
*1584 net785
*1585 net786
*1586 net787
*1587 net788
*1588 net789
*1589 net79
*1590 net790
*1591 net791
*1592 net792
*1593 net793
*1594 net794
*1595 net795
*1596 net796
*1597 net797
*1598 net798
*1599 net799
*1600 net8
*1601 net80
*1602 net800
*1603 net801
*1604 net802
*1605 net803
*1606 net804
*1607 net805
*1608 net806
*1609 net807
*1610 net808
*1611 net809
*1612 net81
*1613 net810
*1614 net811
*1615 net812
*1616 net813
*1617 net814
*1618 net815
*1619 net816
*1620 net817
*1621 net818
*1622 net819
*1623 net82
*1624 net820
*1625 net821
*1626 net822
*1627 net823
*1628 net824
*1629 net825
*1630 net826
*1631 net827
*1632 net828
*1633 net829
*1634 net83
*1635 net830
*1636 net831
*1637 net832
*1638 net833
*1639 net834
*1640 net835
*1641 net836
*1642 net837
*1643 net838
*1644 net839
*1645 net84
*1646 net840
*1647 net841
*1648 net842
*1649 net843
*1650 net844
*1651 net845
*1652 net846
*1653 net847
*1654 net848
*1655 net849
*1656 net85
*1657 net850
*1658 net851
*1659 net852
*1660 net853
*1661 net854
*1662 net855
*1663 net856
*1664 net857
*1665 net858
*1666 net859
*1667 net86
*1668 net860
*1669 net861
*1670 net862
*1671 net863
*1672 net864
*1673 net865
*1674 net866
*1675 net867
*1676 net868
*1677 net869
*1678 net87
*1679 net870
*1680 net871
*1681 net872
*1682 net873
*1683 net874
*1684 net875
*1685 net876
*1686 net877
*1687 net878
*1688 net879
*1689 net88
*1690 net880
*1691 net881
*1692 net882
*1693 net883
*1694 net884
*1695 net885
*1696 net886
*1697 net887
*1698 net888
*1699 net889
*1700 net89
*1701 net890
*1702 net891
*1703 net892
*1704 net893
*1705 net894
*1706 net895
*1707 net896
*1708 net897
*1709 net898
*1710 net899
*1711 net9
*1712 net90
*1713 net900
*1714 net901
*1715 net902
*1716 net903
*1717 net904
*1718 net905
*1719 net906
*1720 net907
*1721 net908
*1722 net909
*1723 net91
*1724 net910
*1725 net911
*1726 net912
*1727 net913
*1728 net914
*1729 net915
*1730 net916
*1731 net917
*1732 net918
*1733 net919
*1734 net92
*1735 net920
*1736 net921
*1737 net922
*1738 net923
*1739 net924
*1740 net925
*1741 net926
*1742 net927
*1743 net928
*1744 net929
*1745 net93
*1746 net930
*1747 net931
*1748 net932
*1749 net933
*1750 net934
*1751 net935
*1752 net936
*1753 net937
*1754 net938
*1755 net939
*1756 net94
*1757 net940
*1758 net941
*1759 net942
*1760 net943
*1761 net944
*1762 net945
*1763 net946
*1764 net947
*1765 net948
*1766 net949
*1767 net95
*1768 net950
*1769 net951
*1770 net952
*1771 net953
*1772 net954
*1773 net955
*1774 net956
*1775 net957
*1776 net958
*1777 net959
*1778 net96
*1779 net960
*1780 net961
*1781 net962
*1782 net963
*1783 net964
*1784 net965
*1785 net966
*1786 net967
*1787 net968
*1788 net969
*1789 net97
*1790 net970
*1791 net971
*1792 net972
*1793 net973
*1794 net974
*1795 net975
*1796 net976
*1797 net977
*1798 net978
*1799 net979
*1800 net98
*1801 net980
*1802 net981
*1803 net982
*1804 net983
*1805 net984
*1806 net985
*1807 net986
*1808 net987
*1809 net988
*1810 net989
*1811 net99
*1812 net990
*1813 net991
*1814 net992
*1815 net993
*1816 net994
*1817 net995
*1818 net996
*1819 net997
*1820 net998
*1821 net999
*1822 ANTENNA_1
*1823 ANTENNA_2
*1824 ANTENNA_c100_A1
*1825 ANTENNA_c100_A3
*1826 ANTENNA_c100_S1
*1827 ANTENNA_c100_X
*1828 ANTENNA_c101_A2
*1829 ANTENNA_c101_S0
*1830 ANTENNA_c101_S1
*1831 ANTENNA_c102_A0
*1832 ANTENNA_c102_A1
*1833 ANTENNA_c102_A2
*1834 ANTENNA_c102_X
*1835 ANTENNA_c103_A0
*1836 ANTENNA_c103_A2
*1837 ANTENNA_c103_S0
*1838 ANTENNA_c103_X
*1839 ANTENNA_c104_A1
*1840 ANTENNA_c104_S1
*1841 ANTENNA_c105_A1
*1842 ANTENNA_c105_A3
*1843 ANTENNA_c105_S0
*1844 ANTENNA_c105_S1
*1845 ANTENNA_c105_X
*1846 ANTENNA_c106_A1
*1847 ANTENNA_c106_A2
*1848 ANTENNA_c106_A3
*1849 ANTENNA_c106_S0
*1850 ANTENNA_c106_S1
*1851 ANTENNA_c107_A0
*1852 ANTENNA_c107_A1
*1853 ANTENNA_c107_A3
*1854 ANTENNA_c107_S1
*1855 ANTENNA_c107_X
*1856 ANTENNA_c108_A1
*1857 ANTENNA_c108_A2
*1858 ANTENNA_c108_A3
*1859 ANTENNA_c108_S0
*1860 ANTENNA_c108_S1
*1861 ANTENNA_c109_A1
*1862 ANTENNA_c109_A3
*1863 ANTENNA_c109_S1
*1864 ANTENNA_c110_A2
*1865 ANTENNA_c110_A3
*1866 ANTENNA_c111_A1
*1867 ANTENNA_c111_A2
*1868 ANTENNA_c111_B1
*1869 ANTENNA_c111_D1
*1870 ANTENNA_c113_A2
*1871 ANTENNA_c113_D1
*1872 ANTENNA_c114_C1
*1873 ANTENNA_c115_A1
*1874 ANTENNA_c115_A3