*SPEF "ieee 1481-1999"
*DESIGN "netlist_1"
*DATE "21:17:55 Sunday August 04, 2024"
*VENDOR "The OpenROAD Project"
*PROGRAM "OpenROAD"
*VERSION "d423155d69de7f683a23f6916ead418a615ad4ad"
*DESIGN_FLOW "NAME_SCOPE LOCAL" "PIN_CAP NONE"
*DIVIDER /
*DELIMITER :
*BUS_DELIMITER []
*T_UNIT 1 NS
*C_UNIT 1 PF
*R_UNIT 1 OHM
*L_UNIT 1 HENRY

*NAME_MAP
*3 clk
*4 in0
*5 in1
*6 in10
*7 in11
*8 in12
*9 in13
*10 in14
*11 in15
*12 in16
*13 in17
*14 in18
*15 in19
*16 in2
*17 in20
*18 in21
*19 in22
*20 in23
*21 in24
*22 in25
*23 in26
*24 in27
*25 in28
*26 in29
*27 in3
*28 in30
*29 in31
*30 in32
*31 in33
*32 in34
*33 in35
*34 in36
*35 in37
*36 in38
*37 in39
*38 in4
*39 in40
*40 in41
*41 in42
*42 in43
*43 in44
*44 in45
*45 in46
*46 in47
*47 in48
*48 in49
*49 in5
*50 in50
*51 in51
*52 in52
*53 in53
*54 in54
*55 in55
*56 in56
*57 in57
*58 in58
*59 in59
*60 in6
*61 in60
*62 in61
*63 in7
*64 in8
*65 in9
*66 out0
*67 out1
*68 out10
*69 out11
*70 out12
*71 out13
*72 out14
*73 out15
*74 out16
*75 out17
*76 out18
*77 out19
*78 out2
*79 out20
*80 out21
*81 out22
*82 out23
*83 out24
*84 out25
*85 out26
*86 out27
*87 out28
*88 out29
*89 out3
*90 out30
*91 out31
*92 out32
*93 out33
*94 out34
*95 out35
*96 out36
*97 out37
*98 out38
*99 out39
*100 out4
*101 out40
*102 out41
*103 out42
*104 out43
*105 out44
*106 out45
*107 out46
*108 out47
*109 out48
*110 out49
*111 out5
*112 out50
*113 out51
*114 out52
*115 out53
*116 out54
*117 out55
*118 out56
*119 out57
*120 out58
*121 out59
*122 out6
*123 out60
*124 out61
*125 out7
*126 out8
*127 out9
*128 rst
*129 clknet_0_clk
*130 clknet_0_net145
*131 clknet_0_net153
*132 clknet_0_net171
*133 clknet_0_net177
*134 clknet_0_net179
*135 clknet_0_net181
*136 clknet_0_net182
*137 clknet_0_net184
*138 clknet_0_net185
*139 clknet_0_net188
*140 clknet_0_net191
*141 clknet_0_net238
*142 clknet_0_net245
*143 clknet_0_net246
*144 clknet_0_net250
*145 clknet_0_net251
*146 clknet_0_net253
*147 clknet_0_net257
*148 clknet_0_net273
*149 clknet_0_net275
*150 clknet_0_net282
*151 clknet_0_net300
*152 clknet_0_net302
*153 clknet_0_net303
*154 clknet_0_net330
*155 clknet_0_net331
*156 clknet_0_net332
*157 clknet_0_net369
*158 clknet_0_net386
*159 clknet_0_net396
*160 clknet_0_net397
*161 clknet_0_net401
*162 clknet_0_net403
*163 clknet_0_net423
*164 clknet_0_net425
*165 clknet_0_net433
*166 clknet_0_net461
*167 clknet_0_net462
*168 clknet_0_net465
*169 clknet_0_net469
*170 clknet_0_net471
*171 clknet_0_net474
*172 clknet_0_net475
*173 clknet_0_net48
*174 clknet_0_net483
*175 clknet_0_net49
*176 clknet_0_net490
*177 clknet_0_net493
*178 clknet_0_net498
*179 clknet_0_net499
*180 clknet_0_net50
*181 clknet_0_net506
*182 clknet_0_net508
*183 clknet_0_net510
*184 clknet_0_net515
*185 clknet_0_net517
*186 clknet_0_net52
*187 clknet_0_net522
*188 clknet_0_net54
*189 clknet_0_net542
*190 clknet_0_net552
*191 clknet_0_net56
*192 clknet_0_net560
*193 clknet_0_net562
*194 clknet_0_net568
*195 clknet_0_net57
*196 clknet_0_net585
*197 clknet_0_net591
*198 clknet_0_net592
*199 clknet_0_net595
*200 clknet_0_net60
*201 clknet_0_net604
*202 clknet_0_net606
*203 clknet_0_net617
*204 clknet_0_net62
*205 clknet_0_net623
*206 clknet_0_net67
*207 clknet_0_net705
*208 clknet_0_net706
*209 clknet_0_net742
*210 clknet_0_net743
*211 clknet_0_net744
*212 clknet_0_net760
*213 clknet_0_net761
*214 clknet_0_net762
*215 clknet_0_net778
*216 clknet_0_net779
*217 clknet_0_net780
*218 clknet_0_net797
*219 clknet_0_net798
*220 clknet_0_net799
*221 clknet_0_net815
*222 clknet_0_net833
*223 clknet_0_net834
*224 clknet_0_net835
*225 clknet_0_net852
*226 clknet_0_net853
*227 clknet_0_net854
*228 clknet_0_net922
*229 clknet_0_net924
*230 clknet_0_net927
*231 clknet_0_net934
*232 clknet_0_net937
*233 clknet_0_net938
*234 clknet_0_net945
*235 clknet_0_net946
*236 clknet_0_net947
*237 clknet_0_net952
*238 clknet_0_net954
*239 clknet_0_net957
*240 clknet_0_net959
*241 clknet_0_net965
*242 clknet_0_net971
*243 clknet_0_net972
*244 clknet_0_net973
*245 clknet_0_net974
*246 clknet_0_net977
*247 clknet_1_0__leaf_net145
*248 clknet_1_0__leaf_net153
*249 clknet_1_0__leaf_net171
*250 clknet_1_0__leaf_net177
*251 clknet_1_0__leaf_net179
*252 clknet_1_0__leaf_net181
*253 clknet_1_0__leaf_net182
*254 clknet_1_0__leaf_net184
*255 clknet_1_0__leaf_net185
*256 clknet_1_0__leaf_net188
*257 clknet_1_0__leaf_net191
*258 clknet_1_0__leaf_net238
*259 clknet_1_0__leaf_net245
*260 clknet_1_0__leaf_net246
*261 clknet_1_0__leaf_net250
*262 clknet_1_0__leaf_net251
*263 clknet_1_0__leaf_net253
*264 clknet_1_0__leaf_net257
*265 clknet_1_0__leaf_net273
*266 clknet_1_0__leaf_net275
*267 clknet_1_0__leaf_net282
*268 clknet_1_0__leaf_net300
*269 clknet_1_0__leaf_net302
*270 clknet_1_0__leaf_net303
*271 clknet_1_0__leaf_net330
*272 clknet_1_0__leaf_net331
*273 clknet_1_0__leaf_net332
*274 clknet_1_0__leaf_net369
*275 clknet_1_0__leaf_net386
*276 clknet_1_0__leaf_net396
*277 clknet_1_0__leaf_net397
*278 clknet_1_0__leaf_net401
*279 clknet_1_0__leaf_net403
*280 clknet_1_0__leaf_net423
*281 clknet_1_0__leaf_net425
*282 clknet_1_0__leaf_net433
*283 clknet_1_0__leaf_net461
*284 clknet_1_0__leaf_net462
*285 clknet_1_0__leaf_net465
*286 clknet_1_0__leaf_net469
*287 clknet_1_0__leaf_net471
*288 clknet_1_0__leaf_net474
*289 clknet_1_0__leaf_net475
*290 clknet_1_0__leaf_net48
*291 clknet_1_0__leaf_net483
*292 clknet_1_0__leaf_net49
*293 clknet_1_0__leaf_net490
*294 clknet_1_0__leaf_net493
*295 clknet_1_0__leaf_net498
*296 clknet_1_0__leaf_net499
*297 clknet_1_0__leaf_net50
*298 clknet_1_0__leaf_net506
*299 clknet_1_0__leaf_net508
*300 clknet_1_0__leaf_net510
*301 clknet_1_0__leaf_net515
*302 clknet_1_0__leaf_net517
*303 clknet_1_0__leaf_net52
*304 clknet_1_0__leaf_net522
*305 clknet_1_0__leaf_net54
*306 clknet_1_0__leaf_net542
*307 clknet_1_0__leaf_net552
*308 clknet_1_0__leaf_net56
*309 clknet_1_0__leaf_net560
*310 clknet_1_0__leaf_net562
*311 clknet_1_0__leaf_net568
*312 clknet_1_0__leaf_net57
*313 clknet_1_0__leaf_net585
*314 clknet_1_0__leaf_net591
*315 clknet_1_0__leaf_net592
*316 clknet_1_0__leaf_net595
*317 clknet_1_0__leaf_net60
*318 clknet_1_0__leaf_net604
*319 clknet_1_0__leaf_net606
*320 clknet_1_0__leaf_net617
*321 clknet_1_0__leaf_net62
*322 clknet_1_0__leaf_net623
*323 clknet_1_0__leaf_net67
*324 clknet_1_0__leaf_net705
*325 clknet_1_0__leaf_net706
*326 clknet_1_0__leaf_net742
*327 clknet_1_0__leaf_net743
*328 clknet_1_0__leaf_net744
*329 clknet_1_0__leaf_net760
*330 clknet_1_0__leaf_net761
*331 clknet_1_0__leaf_net762
*332 clknet_1_0__leaf_net778
*333 clknet_1_0__leaf_net779
*334 clknet_1_0__leaf_net780
*335 clknet_1_0__leaf_net797
*336 clknet_1_0__leaf_net798
*337 clknet_1_0__leaf_net799
*338 clknet_1_0__leaf_net815
*339 clknet_1_0__leaf_net833
*340 clknet_1_0__leaf_net834
*341 clknet_1_0__leaf_net835
*342 clknet_1_0__leaf_net852
*343 clknet_1_0__leaf_net853
*344 clknet_1_0__leaf_net854
*345 clknet_1_0__leaf_net922
*346 clknet_1_0__leaf_net924
*347 clknet_1_0__leaf_net927
*348 clknet_1_0__leaf_net934
*349 clknet_1_0__leaf_net937
*350 clknet_1_0__leaf_net938
*351 clknet_1_0__leaf_net945
*352 clknet_1_0__leaf_net946
*353 clknet_1_0__leaf_net947
*354 clknet_1_0__leaf_net952
*355 clknet_1_0__leaf_net954
*356 clknet_1_0__leaf_net957
*357 clknet_1_0__leaf_net959
*358 clknet_1_0__leaf_net965
*359 clknet_1_0__leaf_net971
*360 clknet_1_0__leaf_net972
*361 clknet_1_0__leaf_net973
*362 clknet_1_0__leaf_net974
*363 clknet_1_0__leaf_net977
*364 clknet_1_1__leaf_net145
*365 clknet_1_1__leaf_net153
*366 clknet_1_1__leaf_net171
*367 clknet_1_1__leaf_net177
*368 clknet_1_1__leaf_net179
*369 clknet_1_1__leaf_net181
*370 clknet_1_1__leaf_net182
*371 clknet_1_1__leaf_net184
*372 clknet_1_1__leaf_net185
*373 clknet_1_1__leaf_net188
*374 clknet_1_1__leaf_net191
*375 clknet_1_1__leaf_net238
*376 clknet_1_1__leaf_net245
*377 clknet_1_1__leaf_net246
*378 clknet_1_1__leaf_net250
*379 clknet_1_1__leaf_net251
*380 clknet_1_1__leaf_net253
*381 clknet_1_1__leaf_net257
*382 clknet_1_1__leaf_net273
*383 clknet_1_1__leaf_net275
*384 clknet_1_1__leaf_net282
*385 clknet_1_1__leaf_net300
*386 clknet_1_1__leaf_net302
*387 clknet_1_1__leaf_net303
*388 clknet_1_1__leaf_net330
*389 clknet_1_1__leaf_net331
*390 clknet_1_1__leaf_net332
*391 clknet_1_1__leaf_net369
*392 clknet_1_1__leaf_net386
*393 clknet_1_1__leaf_net396
*394 clknet_1_1__leaf_net397
*395 clknet_1_1__leaf_net401
*396 clknet_1_1__leaf_net403
*397 clknet_1_1__leaf_net423
*398 clknet_1_1__leaf_net425
*399 clknet_1_1__leaf_net433
*400 clknet_1_1__leaf_net461
*401 clknet_1_1__leaf_net462
*402 clknet_1_1__leaf_net465
*403 clknet_1_1__leaf_net469
*404 clknet_1_1__leaf_net471
*405 clknet_1_1__leaf_net474
*406 clknet_1_1__leaf_net475
*407 clknet_1_1__leaf_net48
*408 clknet_1_1__leaf_net483
*409 clknet_1_1__leaf_net49
*410 clknet_1_1__leaf_net490
*411 clknet_1_1__leaf_net493
*412 clknet_1_1__leaf_net498
*413 clknet_1_1__leaf_net499
*414 clknet_1_1__leaf_net50
*415 clknet_1_1__leaf_net506
*416 clknet_1_1__leaf_net508
*417 clknet_1_1__leaf_net510
*418 clknet_1_1__leaf_net515
*419 clknet_1_1__leaf_net517
*420 clknet_1_1__leaf_net52
*421 clknet_1_1__leaf_net522
*422 clknet_1_1__leaf_net54
*423 clknet_1_1__leaf_net542
*424 clknet_1_1__leaf_net552
*425 clknet_1_1__leaf_net56
*426 clknet_1_1__leaf_net560
*427 clknet_1_1__leaf_net562
*428 clknet_1_1__leaf_net568
*429 clknet_1_1__leaf_net57
*430 clknet_1_1__leaf_net585
*431 clknet_1_1__leaf_net591
*432 clknet_1_1__leaf_net592
*433 clknet_1_1__leaf_net595
*434 clknet_1_1__leaf_net60
*435 clknet_1_1__leaf_net604
*436 clknet_1_1__leaf_net606
*437 clknet_1_1__leaf_net617
*438 clknet_1_1__leaf_net62
*439 clknet_1_1__leaf_net623
*440 clknet_1_1__leaf_net67
*441 clknet_1_1__leaf_net705
*442 clknet_1_1__leaf_net706
*443 clknet_1_1__leaf_net742
*444 clknet_1_1__leaf_net743
*445 clknet_1_1__leaf_net744
*446 clknet_1_1__leaf_net760
*447 clknet_1_1__leaf_net761
*448 clknet_1_1__leaf_net762
*449 clknet_1_1__leaf_net778
*450 clknet_1_1__leaf_net779
*451 clknet_1_1__leaf_net780
*452 clknet_1_1__leaf_net797
*453 clknet_1_1__leaf_net798
*454 clknet_1_1__leaf_net799
*455 clknet_1_1__leaf_net815
*456 clknet_1_1__leaf_net833
*457 clknet_1_1__leaf_net834
*458 clknet_1_1__leaf_net835
*459 clknet_1_1__leaf_net852
*460 clknet_1_1__leaf_net853
*461 clknet_1_1__leaf_net854
*462 clknet_1_1__leaf_net922
*463 clknet_1_1__leaf_net924
*464 clknet_1_1__leaf_net927
*465 clknet_1_1__leaf_net934
*466 clknet_1_1__leaf_net937
*467 clknet_1_1__leaf_net938
*468 clknet_1_1__leaf_net945
*469 clknet_1_1__leaf_net946
*470 clknet_1_1__leaf_net947
*471 clknet_1_1__leaf_net952
*472 clknet_1_1__leaf_net954
*473 clknet_1_1__leaf_net957
*474 clknet_1_1__leaf_net959
*475 clknet_1_1__leaf_net965
*476 clknet_1_1__leaf_net971
*477 clknet_1_1__leaf_net972
*478 clknet_1_1__leaf_net973
*479 clknet_1_1__leaf_net974
*480 clknet_1_1__leaf_net977
*481 clknet_4_0_0_clk
*482 clknet_4_10_0_clk
*483 clknet_4_11_0_clk
*484 clknet_4_12_0_clk
*485 clknet_4_13_0_clk
*486 clknet_4_14_0_clk
*487 clknet_4_15_0_clk
*488 clknet_4_1_0_clk
*489 clknet_4_2_0_clk
*490 clknet_4_3_0_clk
*491 clknet_4_4_0_clk
*492 clknet_4_5_0_clk
*493 clknet_4_6_0_clk
*494 clknet_4_7_0_clk
*495 clknet_4_8_0_clk
*496 clknet_4_9_0_clk
*497 net0
*498 net1
*499 net10
*500 net100
*501 net1000
*502 net1001
*503 net1002
*504 net1003
*505 net1004
*506 net1005
*507 net1006
*508 net1007
*509 net1008
*510 net1009
*511 net101
*512 net1010
*513 net1011
*514 net1012
*515 net1013
*516 net1014
*517 net1015
*518 net1016
*519 net1017
*520 net1018
*521 net1019
*522 net102
*523 net1020
*524 net1021
*525 net1022
*526 net1023
*527 net1024
*528 net1025
*529 net1026
*530 net1027
*531 net1028
*532 net1029
*533 net103
*534 net1030
*535 net1031
*536 net1032
*537 net1033
*538 net1034
*539 net1035
*540 net1036
*541 net1037
*542 net1038
*543 net1039
*544 net104
*545 net1040
*546 net1041
*547 net1042
*548 net1043
*549 net1044
*550 net1045
*551 net1046
*552 net1047
*553 net1048
*554 net1049
*555 net105
*556 net1050
*557 net1051
*558 net1052
*559 net1053
*560 net1054
*561 net1055
*562 net1056
*563 net1057
*564 net1058
*565 net1059
*566 net106
*567 net1060
*568 net1061
*569 net1062
*570 net1063
*571 net1064
*572 net1065
*573 net1066
*574 net1067
*575 net1068
*576 net1069
*577 net107
*578 net1070
*579 net1071
*580 net1072
*581 net1073
*582 net1074
*583 net1075
*584 net1076
*585 net1077
*586 net1078
*587 net1079
*588 net108
*589 net1080
*590 net1081
*591 net1082
*592 net1083
*593 net1084
*594 net1085
*595 net1086
*596 net1087
*597 net1088
*598 net1089
*599 net109
*600 net1090
*601 net1091
*602 net1092
*603 net1093
*604 net1094
*605 net1095
*606 net1096
*607 net1097
*608 net1098
*609 net1099
*610 net11
*611 net110
*612 net1100
*613 net1101
*614 net1102
*615 net1103
*616 net111
*617 net112
*618 net113
*619 net114
*620 net115
*621 net116
*622 net117
*623 net118
*624 net119
*625 net12
*626 net120
*627 net121
*628 net122
*629 net123
*630 net124
*631 net125
*632 net126
*633 net127
*634 net128
*635 net129
*636 net13
*637 net130
*638 net131
*639 net132
*640 net133
*641 net134
*642 net135
*643 net136
*644 net137
*645 net138
*646 net139
*647 net14
*648 net140
*649 net141
*650 net142
*651 net143
*652 net144
*653 net145
*654 net146
*655 net147
*656 net148
*657 net149
*658 net15
*659 net150
*660 net151
*661 net152
*662 net153
*663 net154
*664 net155
*665 net156
*666 net157
*667 net158
*668 net159
*669 net16
*670 net160
*671 net161
*672 net162
*673 net163
*674 net164
*675 net165
*676 net166
*677 net167
*678 net168
*679 net169
*680 net17
*681 net170
*682 net171
*683 net172
*684 net173
*685 net174
*686 net175
*687 net176
*688 net177
*689 net178
*690 net179
*691 net18
*692 net180
*693 net181
*694 net182
*695 net183
*696 net184
*697 net185
*698 net186
*699 net187
*700 net188
*701 net189
*702 net19
*703 net190
*704 net191
*705 net192
*706 net193
*707 net194
*708 net195
*709 net196
*710 net197
*711 net198
*712 net199
*713 net2
*714 net20
*715 net200
*716 net201
*717 net202
*718 net203
*719 net204
*720 net205
*721 net206
*722 net207
*723 net208
*724 net209
*725 net21
*726 net210
*727 net211
*728 net212
*729 net213
*730 net214
*731 net215
*732 net216
*733 net217
*734 net218
*735 net219
*736 net22
*737 net220
*738 net221
*739 net222
*740 net223
*741 net224
*742 net225
*743 net226
*744 net227
*745 net228
*746 net229
*747 net23
*748 net230
*749 net231
*750 net232
*751 net233
*752 net234
*753 net235
*754 net236
*755 net237
*756 net238
*757 net239
*758 net24
*759 net240
*760 net241
*761 net242
*762 net243
*763 net244
*764 net245
*765 net246
*766 net247
*767 net248
*768 net249
*769 net25
*770 net250
*771 net251
*772 net252
*773 net253
*774 net254
*775 net255
*776 net256
*777 net257
*778 net258
*779 net259
*780 net26
*781 net260
*782 net261
*783 net262
*784 net263
*785 net264
*786 net265
*787 net266
*788 net267
*789 net268
*790 net269
*791 net27
*792 net270
*793 net271
*794 net272
*795 net273
*796 net274
*797 net275
*798 net276
*799 net277
*800 net278
*801 net279
*802 net28
*803 net280
*804 net281
*805 net282
*806 net283
*807 net284
*808 net285
*809 net286
*810 net287
*811 net288
*812 net289
*813 net29
*814 net290
*815 net291
*816 net292
*817 net293
*818 net294
*819 net295
*820 net296
*821 net297
*822 net298
*823 net299
*824 net3
*825 net30
*826 net300
*827 net301
*828 net302
*829 net303
*830 net304
*831 net305
*832 net306
*833 net307
*834 net308
*835 net309
*836 net31
*837 net310
*838 net311
*839 net312
*840 net313
*841 net314
*842 net315
*843 net316
*844 net317
*845 net318
*846 net319
*847 net32
*848 net320
*849 net321
*850 net322
*851 net323
*852 net324
*853 net325
*854 net326
*855 net327
*856 net328
*857 net329
*858 net33
*859 net330
*860 net331
*861 net332
*862 net333
*863 net334
*864 net335
*865 net336
*866 net337
*867 net338
*868 net339
*869 net34
*870 net340
*871 net341
*872 net342
*873 net343
*874 net344
*875 net345
*876 net346
*877 net347
*878 net348
*879 net349
*880 net35
*881 net350
*882 net351
*883 net352
*884 net353
*885 net354
*886 net355
*887 net356
*888 net357
*889 net358
*890 net359
*891 net36
*892 net360
*893 net361
*894 net362
*895 net363
*896 net364
*897 net365
*898 net366
*899 net367
*900 net368
*901 net369
*902 net37
*903 net370
*904 net371
*905 net372
*906 net373
*907 net374
*908 net375
*909 net376
*910 net377
*911 net378
*912 net379
*913 net38
*914 net380
*915 net381
*916 net382
*917 net383
*918 net384
*919 net385
*920 net386
*921 net387
*922 net388
*923 net389
*924 net39
*925 net390
*926 net391
*927 net392
*928 net393
*929 net394
*930 net395
*931 net396
*932 net397
*933 net398
*934 net399
*935 net4
*936 net40
*937 net400
*938 net401
*939 net402
*940 net403
*941 net404
*942 net405
*943 net406
*944 net407
*945 net408
*946 net409
*947 net41
*948 net410
*949 net411
*950 net412
*951 net413
*952 net414
*953 net415
*954 net416
*955 net417
*956 net418
*957 net419
*958 net42
*959 net420
*960 net421
*961 net422
*962 net423
*963 net424
*964 net425
*965 net426
*966 net427
*967 net428
*968 net429
*969 net43
*970 net430
*971 net431
*972 net432
*973 net433
*974 net434
*975 net435
*976 net436
*977 net437
*978 net438
*979 net439
*980 net44
*981 net440
*982 net441
*983 net442
*984 net443
*985 net444
*986 net445
*987 net446
*988 net447
*989 net448
*990 net449
*991 net45
*992 net450
*993 net451
*994 net452
*995 net453
*996 net454
*997 net455
*998 net456
*999 net457
*1000 net458
*1001 net459
*1002 net46
*1003 net460
*1004 net461
*1005 net462
*1006 net463
*1007 net464
*1008 net465
*1009 net466
*1010 net467
*1011 net468
*1012 net469
*1013 net47
*1014 net470
*1015 net471
*1016 net472
*1017 net473
*1018 net474
*1019 net475
*1020 net476
*1021 net477
*1022 net478
*1023 net479
*1024 net48
*1025 net480
*1026 net481
*1027 net482
*1028 net483
*1029 net484
*1030 net485
*1031 net486
*1032 net487
*1033 net488
*1034 net489
*1035 net49
*1036 net490
*1037 net491
*1038 net492
*1039 net493
*1040 net494
*1041 net495
*1042 net496
*1043 net497
*1044 net498
*1045 net499
*1046 net5
*1047 net50
*1048 net500
*1049 net501
*1050 net502
*1051 net503
*1052 net504
*1053 net505
*1054 net506
*1055 net507
*1056 net508
*1057 net509
*1058 net51
*1059 net510
*1060 net511
*1061 net512
*1062 net513
*1063 net514
*1064 net515
*1065 net516
*1066 net517
*1067 net518
*1068 net519
*1069 net52
*1070 net520
*1071 net521
*1072 net522
*1073 net523
*1074 net524
*1075 net525
*1076 net526
*1077 net527
*1078 net528
*1079 net529
*1080 net53
*1081 net530
*1082 net531
*1083 net532
*1084 net533
*1085 net534
*1086 net535
*1087 net536
*1088 net537
*1089 net538
*1090 net539
*1091 net54
*1092 net540
*1093 net541
*1094 net542
*1095 net543
*1096 net544
*1097 net545
*1098 net546
*1099 net547
*1100 net548
*1101 net549
*1102 net55
*1103 net550
*1104 net551
*1105 net552
*1106 net553
*1107 net554
*1108 net555
*1109 net556
*1110 net557
*1111 net558
*1112 net559
*1113 net56
*1114 net560
*1115 net561
*1116 net562
*1117 net563
*1118 net564
*1119 net565
*1120 net566
*1121 net567
*1122 net568
*1123 net569
*1124 net57
*1125 net570
*1126 net571
*1127 net572
*1128 net573
*1129 net574
*1130 net575
*1131 net576
*1132 net577
*1133 net578
*1134 net579
*1135 net58
*1136 net580
*1137 net581
*1138 net582
*1139 net583
*1140 net584
*1141 net585
*1142 net586
*1143 net587
*1144 net588
*1145 net589
*1146 net59
*1147 net590
*1148 net591
*1149 net592
*1150 net593
*1151 net594
*1152 net595
*1153 net596
*1154 net597
*1155 net598
*1156 net599
*1157 net6
*1158 net60
*1159 net600
*1160 net601
*1161 net602
*1162 net603
*1163 net604
*1164 net605
*1165 net606
*1166 net607
*1167 net608
*1168 net609
*1169 net61
*1170 net610
*1171 net611
*1172 net612
*1173 net613
*1174 net614
*1175 net615
*1176 net616
*1177 net617
*1178 net618
*1179 net619
*1180 net62
*1181 net620
*1182 net621
*1183 net622
*1184 net623
*1185 net624
*1186 net625
*1187 net626
*1188 net627
*1189 net628
*1190 net629
*1191 net63
*1192 net630
*1193 net631
*1194 net632
*1195 net633
*1196 net634
*1197 net635
*1198 net636
*1199 net637
*1200 net638
*1201 net639
*1202 net64
*1203 net640
*1204 net641
*1205 net642
*1206 net643
*1207 net644
*1208 net645
*1209 net646
*1210 net647
*1211 net648
*1212 net649
*1213 net65
*1214 net650
*1215 net651
*1216 net652
*1217 net653
*1218 net654
*1219 net655
*1220 net656
*1221 net657
*1222 net658
*1223 net659
*1224 net66
*1225 net660
*1226 net661
*1227 net662
*1228 net663
*1229 net664
*1230 net665
*1231 net666
*1232 net667
*1233 net668
*1234 net669
*1235 net67
*1236 net670
*1237 net671
*1238 net672
*1239 net673
*1240 net674
*1241 net675
*1242 net676
*1243 net677
*1244 net678
*1245 net679
*1246 net68
*1247 net680
*1248 net681
*1249 net682
*1250 net683
*1251 net684
*1252 net685
*1253 net686
*1254 net687
*1255 net688
*1256 net689
*1257 net69
*1258 net690
*1259 net691
*1260 net692
*1261 net693
*1262 net694
*1263 net695
*1264 net696
*1265 net697
*1266 net698
*1267 net699
*1268 net7
*1269 net70
*1270 net700
*1271 net701
*1272 net702
*1273 net703
*1274 net704
*1275 net705
*1276 net706
*1277 net707
*1278 net708
*1279 net709
*1280 net71
*1281 net710
*1282 net711
*1283 net712
*1284 net713
*1285 net714
*1286 net715
*1287 net716
*1288 net717
*1289 net718
*1290 net719
*1291 net72
*1292 net720
*1293 net721
*1294 net722
*1295 net723
*1296 net724
*1297 net725
*1298 net726
*1299 net727
*1300 net728
*1301 net729
*1302 net73
*1303 net730
*1304 net731
*1305 net732
*1306 net733
*1307 net734
*1308 net735
*1309 net736
*1310 net737
*1311 net738
*1312 net739
*1313 net74
*1314 net740
*1315 net741
*1316 net742
*1317 net743
*1318 net744
*1319 net745
*1320 net746
*1321 net747
*1322 net748
*1323 net749
*1324 net75
*1325 net750
*1326 net751
*1327 net752
*1328 net753
*1329 net754
*1330 net755
*1331 net756
*1332 net757
*1333 net758
*1334 net759
*1335 net76
*1336 net760
*1337 net761
*1338 net762
*1339 net763
*1340 net764
*1341 net765
*1342 net766
*1343 net767
*1344 net768
*1345 net769
*1346 net77
*1347 net770
*1348 net771
*1349 net772
*1350 net773
*1351 net774
*1352 net775
*1353 net776
*1354 net777
*1355 net778
*1356 net779
*1357 net78
*1358 net780
*1359 net781
*1360 net782
*1361 net783
*1362 net784
*1363 net785
*1364 net786
*1365 net787
*1366 net788
*1367 net789
*1368 net79
*1369 net790
*1370 net791
*1371 net792
*1372 net793
*1373 net794
*1374 net795
*1375 net796
*1376 net797
*1377 net798
*1378 net799
*1379 net8
*1380 net80
*1381 net800
*1382 net801
*1383 net802
*1384 net803
*1385 net804
*1386 net805
*1387 net806
*1388 net807
*1389 net808
*1390 net809
*1391 net81
*1392 net810
*1393 net811
*1394 net812
*1395 net813
*1396 net814
*1397 net815
*1398 net816
*1399 net817
*1400 net818
*1401 net819
*1402 net82
*1403 net820
*1404 net821
*1405 net822
*1406 net823
*1407 net824
*1408 net825
*1409 net826
*1410 net827
*1411 net828
*1412 net829
*1413 net83
*1414 net830
*1415 net831
*1416 net832
*1417 net833
*1418 net834
*1419 net835
*1420 net836
*1421 net837
*1422 net838
*1423 net839
*1424 net84
*1425 net840
*1426 net841
*1427 net842
*1428 net843
*1429 net844
*1430 net845
*1431 net846
*1432 net847
*1433 net848
*1434 net849
*1435 net85
*1436 net850
*1437 net851
*1438 net852
*1439 net853
*1440 net854
*1441 net855
*1442 net856
*1443 net857
*1444 net858
*1445 net859
*1446 net86
*1447 net860
*1448 net861
*1449 net862
*1450 net863
*1451 net864
*1452 net865
*1453 net866
*1454 net867
*1455 net868
*1456 net869
*1457 net87
*1458 net870
*1459 net871
*1460 net872
*1461 net873
*1462 net874
*1463 net875
*1464 net876
*1465 net877
*1466 net878
*1467 net879
*1468 net88
*1469 net880
*1470 net881
*1471 net882
*1472 net883
*1473 net884
*1474 net885
*1475 net886
*1476 net887
*1477 net888
*1478 net889
*1479 net89
*1480 net890
*1481 net891
*1482 net892
*1483 net893
*1484 net894
*1485 net895
*1486 net896
*1487 net897
*1488 net898
*1489 net899
*1490 net9
*1491 net90
*1492 net900
*1493 net901
*1494 net902
*1495 net903
*1496 net904
*1497 net905
*1498 net906
*1499 net907
*1500 net908
*1501 net909
*1502 net91
*1503 net910
*1504 net911
*1505 net912
*1506 net913
*1507 net914
*1508 net915
*1509 net916
*1510 net917
*1511 net918
*1512 net919
*1513 net92
*1514 net920
*1515 net921
*1516 net922
*1517 net923
*1518 net924
*1519 net925
*1520 net926
*1521 net927
*1522 net928
*1523 net929
*1524 net93
*1525 net930
*1526 net931
*1527 net932
*1528 net933
*1529 net934
*1530 net935
*1531 net936
*1532 net937
*1533 net938
*1534 net939
*1535 net94
*1536 net940
*1537 net941
*1538 net942
*1539 net943
*1540 net944
*1541 net945
*1542 net946
*1543 net947
*1544 net948
*1545 net949
*1546 net95
*1547 net950
*1548 net951
*1549 net952
*1550 net953
*1551 net954
*1552 net955
*1553 net956
*1554 net957
*1555 net958
*1556 net959
*1557 net96
*1558 net960
*1559 net961
*1560 net962
*1561 net963
*1562 net964
*1563 net965
*1564 net966
*1565 net967
*1566 net968
*1567 net969
*1568 net97
*1569 net970
*1570 net971
*1571 net972
*1572 net973
*1573 net974
*1574 net975
*1575 net976
*1576 net977
*1577 net978
*1578 net979
*1579 net98
*1580 net980
*1581 net981
*1582 net982
*1583 net983
*1584 net984
*1585 net985
*1586 net986
*1587 net987
*1588 net988
*1589 net989
*1590 net99
*1591 net990
*1592 net991
*1593 net992
*1594 net993
*1595 net994
*1596 net995
*1597 net996
*1598 net997
*1599 net998
*1600 net999
*1601 ANTENNA_1
*1602 ANTENNA_2
*1603 ANTENNA_c100_B1
*1604 ANTENNA_c100_X
*1605 ANTENNA_c101_A1
*1606 ANTENNA_c101_B1_N
*1607 ANTENNA_c102_CLK_N
*1608 ANTENNA_c102_Q_N
*1609 ANTENNA_c102_SCD
*1610 ANTENNA_c102_SCE
*1611 ANTENNA_c102_SET_B
*1612 ANTENNA_c103_A4
*1613 ANTENNA_c103_B1
*1614 ANTENNA_c104_A3
*1615 ANTENNA_c104_A4
*1616 ANTENNA_c105_A1
*1617 ANTENNA_c105_A3
*1618 ANTENNA_c105_S1
*1619 ANTENNA_c106_CLK_N
*1620 ANTENNA_c106_SCE
*1621 ANTENNA_c107_A1
*1622 ANTENNA_c107_A3
*1623 ANTENNA_c107_A4
*1624 ANTENNA_c108_S0
*1625 ANTENNA_c108_S1
*1626 ANTENNA_c108_X
*1627 ANTENNA_c109_A2
*1628 ANTENNA_c109_S0
*1629 ANTENNA_c109_S1
*1630 ANTENNA_c112_B1_N
*1631 ANTENNA_c113_CLK_N
*1632 ANTENNA_c113_Q
*1633 ANTENNA_c113_RESET_B
*1634 ANTENNA_c113_SET_B
*1635 ANTENNA_c114_B1_N
*1636 ANTENNA_c115_A1
*1637 ANTENNA_c116_A2
*1638 ANTENNA_c117_A1
*1639 ANTENNA_c117_A2
*1640 ANTENNA_c118_A1
*1641 ANTENNA_c118_B1
*1642 ANTENNA_c119_A2
*1643 ANTENNA_c119_A3
*1644 ANTENNA_c120_A3
*1645 ANTENNA_c120_B1
*1646 ANTENNA_c121_B1_N
*1647 ANTENNA_c122_A3
*1648 ANTENNA_c123_B1_N
*1649 ANTENNA_c125_A2
*1650 ANTENNA_c126_A3
*1651 ANTENNA_c126_B1
*1652 ANTENNA_c127_S1
*1653 ANTENNA_c128_B1
*1654 ANTENNA_c129_CLK
*1655 ANTENNA_c131_A1
*1656 ANTENNA_c132_X
*1657 ANTENNA_c133_X
*1658 ANTENNA_c134_A4
*1659 ANTENNA_c134_X
*1660 ANTENNA_c136_A2
*1661 ANTENNA_c138_A2
*1662 ANTENNA_c138_X
*1663 ANTENNA_c139_A1
*1664 ANTENNA_c139_A2
*1665 ANTENNA_c140_A2
*1666 ANTENNA_c140_A3
*1667 ANTENNA_c140_X
*1668 ANTENNA_c141_A2
*1669 ANTENNA_c141_A3
*1670 ANTENNA_c141_S0
*1671 ANTENNA_c142_A2
*1672 ANTENNA_c142_A4
*1673 ANTENNA_c142_X
*1674 ANTENNA_c143_A2
*1675 ANTENNA_c143_A4
*1676 ANTENNA_c144_B1
*1677 ANTENNA_c144_X
*1678 ANTENNA_c145_A3
*1679 ANTENNA_c146_A4
*1680 ANTENNA_c146_B1
*1681 ANTENNA_c147_A4
*1682 ANTENNA_c147_B1
*1683 ANTENNA_c147_X
*1684 ANTENNA_c148_A3
*1685 ANTENNA_c148_A4
*1686 ANTENNA_c149_A0
*1687 ANTENNA_c149_A1
*1688 ANTENNA_c149_S1
*1689 ANTENNA_c149_X
*1690 ANTENNA_c150_B1
*1691 ANTENNA_c151_A3
*1692 ANTENNA_c151_A4
*1693 ANTENNA_c152_A0
*1694 ANTENNA_c152_A2
*1695 ANTENNA_c152_S1
*1696 ANTENNA_c152_X
*1697 ANTENNA_c153_A0
*1698 ANTENNA_c153_A3
*1699 ANTENNA_c153_S0
*1700 ANTENNA_c153_X
*1701 ANTENNA_c154_A3
*1702 ANTENNA_c154_A4
*1703 ANTENNA_c154_B1
*1704 ANTENNA_c154_X
*1705 ANTENNA_c155_A2
*1706 ANTENNA_c155_A3
*1707 ANTENNA_c156_A3
*1708 ANTENNA_c156_A4
*1709 ANTENNA_c156_B1
*1710 ANTENNA_c156_X
*1711 ANTENNA_c157_A2
*1712 ANTENNA_c157_A3
*1713 ANTENNA_c157_B1
*1714 ANTENNA_c158_A1
*1715 ANTENNA_c158_A2
*1716 ANTENNA_c158_S1
*1717 ANTENNA_c159_A2
*1718 ANTENNA_c159_S0
*1719 ANTENNA_c160_A2
*1720 ANTENNA_c160_A3
*1721 ANTENNA_c160_B1
*1722 ANTENNA_c161_A2
*1723 ANTENNA_c161_A3
*1724 ANTENNA_c161_B1
*1725 ANTENNA_c161_X
*1726 ANTENNA_c162_A1
*1727 ANTENNA_c162_A2
*1728 ANTENNA_c162_A3
*1729 ANTENNA_c162_X
*1730 ANTENNA_c163_A1
*1731 ANTENNA_c163_A2
*1732 ANTENNA_c163_A3
*1733 ANTENNA_c163_A4
*1734 ANTENNA_c163_B1
*1735 ANTENNA_c164_A3
*1736 ANTENNA_c164_A4
*1737 ANTENNA_c164_B1
*1738 ANTENNA_c166_A1
*1739 ANTENNA_c166_A2
*1740 ANTENNA_c166_A3
*1741 ANTENNA_c167_A3
*1742 ANTENNA_c167_S1
*1743 ANTENNA_c168_A4
*1744 ANTENNA_c168_X
*1745 ANTENNA_c169_A2
*1746 ANTENNA_c169_A3
*1747 ANTENNA_c169_S0
*1748 ANTENNA_c170_X
*1749 ANTENNA_c171_A1
*1750 ANTENNA_c171_A2
*1751 ANTENNA_c171_A3
*1752 ANTENNA_c172_A0
*1753 ANTENNA_c172_A3
*1754 ANTENNA_c173_S1
*1755 ANTENNA_c174_A0
*1756 ANTENNA_c174_A2
*1757 ANTENNA_c174_S0
*1758 ANTENNA_c174_S1
*1759 ANTENNA_c175_S0
*1760 ANTENNA_c176_A1
*1761 ANTENNA_c176_B1_N
*1762 ANTENNA_c176_X
*1763 ANTENNA_c177_A2
*1764 ANTENNA_c177_A3
*1765 ANTENNA_c177_B1
*1766 ANTENNA_c177_X
*1767 ANTENNA_c178_A1
*1768 ANTENNA_c178_A3
*1769 ANTENNA_c178_B1
*1770 ANTENNA_c179_A1
*1771 ANTENNA_c179_A2
*1772 ANTENNA_c179_A3
*1773 ANTENNA_c179_A4
*1774 ANTENNA_c179_B1
*1775 ANTENNA_c179_X
*1776 ANTENNA_c180_A0
*1777 ANTENNA_c180_A1
*1778 ANTENNA_c180_A2
*1779 ANTENNA_c180_S0
*1780 ANTENNA_c180_S1
*1781 ANTENNA_c181_A1
*1782 ANTENNA_c181_A2
*1783 ANTENNA_c181_A3
*1784 ANTENNA_c181_S0
*1785 ANTENNA_c182_A2
*1786 ANTENNA_c182_A3
*1787 ANTENNA_c182_B1
*1788 ANTENNA_c183_A0
*1789 ANTENNA_c183_A1
*1790 ANTENNA_c183_A2
*1791 ANTENNA_c183_A3
*1792 ANTENNA_c183_S0
*1793 ANTENNA_c183_S1
*1794 ANTENNA_c183_X
*1795 ANTENNA_c184_A0
*1796 ANTENNA_c184_A3
*1797 ANTENNA_c184_S1
*1798 ANTENNA_c185_A0
*1799 ANTENNA_c185_A1
*1800 ANTENNA_c185_A2
*1801 ANTENNA_c185_A3
*1802 ANTENNA_c185_S1
*1803 ANTENNA_c186_A1
*1804 ANTENNA_c186_A2
*1805 ANTENNA_c186_A4
*1806 ANTENNA_c186_B1
*1807 ANTENNA_c187_A1
*1808 ANTENNA_c187_A2
*1809 ANTENNA_c187_B1_N
*1810 ANTENNA_c188_A1
*1811 ANTENNA_c188_A3
*1812 ANTENNA_c188_S0
*1813 ANTENNA_c188_S1
*1814 ANTENNA_c188_X
*1815 ANTENNA_c189_A3
*1816 ANTENNA_c190_A2
*1817 ANTENNA_c190_A3
*1818 ANTENNA_c191_A1
*1819 ANTENNA_c191_A2
*1820 ANTENNA_c191_A3
*1821 ANTENNA_c191_S1
*1822 ANTENNA_c192_A4
*1823 ANTENNA_c192_X
*1824 ANTENNA_c193_A1
*1825 ANTENNA_c193_A2
*1826 ANTENNA_c193_A3
*1827 ANTENNA_c193_S1
*1828 ANTENNA_c194_A0