*SPEF "ieee 1481-1999"
*DESIGN "netlist_0"
*DATE "17:35:18 Tuesday August 06, 2024"
*VENDOR "The OpenROAD Project"
*PROGRAM "OpenROAD"
*VERSION "d423155d69de7f683a23f6916ead418a615ad4ad"
*DESIGN_FLOW "NAME_SCOPE LOCAL" "PIN_CAP NONE"
*DIVIDER /
*DELIMITER :
*BUS_DELIMITER []
*T_UNIT 1 NS
*C_UNIT 1 PF
*R_UNIT 1 OHM
*L_UNIT 1 HENRY

*NAME_MAP
*3 clk
*4 in0
*5 in1
*6 in10
*7 in11
*8 in12
*9 in13
*10 in14
*11 in15
*12 in16
*13 in17
*14 in18
*15 in19
*16 in2
*17 in20
*18 in21
*19 in22
*20 in23
*21 in24
*22 in25
*23 in26
*24 in27
*25 in28
*26 in29
*27 in3
*28 in30
*29 in31
*30 in32
*31 in33
*32 in34
*33 in35
*34 in36
*35 in37
*36 in38
*37 in39
*38 in4
*39 in40
*40 in41
*41 in42
*42 in43
*43 in44
*44 in45
*45 in46
*46 in47
*47 in48
*48 in49
*49 in5
*50 in50
*51 in51
*52 in52
*53 in53
*54 in54
*55 in55
*56 in56
*57 in57
*58 in58
*59 in59
*60 in6
*61 in60
*62 in61
*63 in7
*64 in8
*65 in9
*66 out0
*67 out1
*68 out10
*69 out11
*70 out12
*71 out13
*72 out14
*73 out15
*74 out16
*75 out17
*76 out18
*77 out19
*78 out2
*79 out20
*80 out21
*81 out22
*82 out23
*83 out24
*84 out25
*85 out26
*86 out27
*87 out28
*88 out29
*89 out3
*90 out30
*91 out31
*92 out32
*93 out33
*94 out34
*95 out35
*96 out36
*97 out37
*98 out38
*99 out39
*100 out4
*101 out40
*102 out41
*103 out42
*104 out43
*105 out44
*106 out45
*107 out46
*108 out47
*109 out48
*110 out49
*111 out5
*112 out50
*113 out51
*114 out52
*115 out53
*116 out54
*117 out55
*118 out56
*119 out57
*120 out58
*121 out59
*122 out6
*123 out60
*124 out61
*125 out7
*126 out8
*127 out9
*128 rst
*129 clknet_0_clk
*130 clknet_0_net396
*131 clknet_0_net462
*132 clknet_0_net469
*133 clknet_0_net478
*134 clknet_0_net480
*135 clknet_0_net485
*136 clknet_0_net493
*137 clknet_0_net574
*138 clknet_0_net592
*139 clknet_0_net594
*140 clknet_0_net600
*141 clknet_0_net681
*142 clknet_0_net682
*143 clknet_0_net683
*144 clknet_0_net701
*145 clknet_0_net702
*146 clknet_0_net719
*147 clknet_0_net736
*148 clknet_0_net737
*149 clknet_1_0__leaf_net396
*150 clknet_1_0__leaf_net462
*151 clknet_1_0__leaf_net469
*152 clknet_1_0__leaf_net478
*153 clknet_1_0__leaf_net480
*154 clknet_1_0__leaf_net485
*155 clknet_1_0__leaf_net493
*156 clknet_1_0__leaf_net574
*157 clknet_1_0__leaf_net592
*158 clknet_1_0__leaf_net594
*159 clknet_1_0__leaf_net600
*160 clknet_1_0__leaf_net681
*161 clknet_1_0__leaf_net682
*162 clknet_1_0__leaf_net683
*163 clknet_1_0__leaf_net701
*164 clknet_1_0__leaf_net702
*165 clknet_1_0__leaf_net719
*166 clknet_1_0__leaf_net736
*167 clknet_1_0__leaf_net737
*168 clknet_1_1__leaf_net396
*169 clknet_1_1__leaf_net462
*170 clknet_1_1__leaf_net469
*171 clknet_1_1__leaf_net478
*172 clknet_1_1__leaf_net480
*173 clknet_1_1__leaf_net485
*174 clknet_1_1__leaf_net493
*175 clknet_1_1__leaf_net574
*176 clknet_1_1__leaf_net592
*177 clknet_1_1__leaf_net594
*178 clknet_1_1__leaf_net600
*179 clknet_1_1__leaf_net681
*180 clknet_1_1__leaf_net682
*181 clknet_1_1__leaf_net683
*182 clknet_1_1__leaf_net701
*183 clknet_1_1__leaf_net702
*184 clknet_1_1__leaf_net719
*185 clknet_1_1__leaf_net736
*186 clknet_1_1__leaf_net737
*187 clknet_4_0_0_clk
*188 clknet_4_10_0_clk
*189 clknet_4_11_0_clk
*190 clknet_4_12_0_clk
*191 clknet_4_13_0_clk
*192 clknet_4_14_0_clk
*193 clknet_4_15_0_clk
*194 clknet_4_1_0_clk
*195 clknet_4_2_0_clk
*196 clknet_4_3_0_clk
*197 clknet_4_4_0_clk
*198 clknet_4_5_0_clk
*199 clknet_4_6_0_clk
*200 clknet_4_7_0_clk
*201 clknet_4_8_0_clk
*202 clknet_4_9_0_clk
*203 net0
*204 net1
*205 net10
*206 net100
*207 net1000
*208 net1001
*209 net1002
*210 net1003
*211 net1004
*212 net1005
*213 net1006
*214 net1007
*215 net1008
*216 net1009
*217 net101
*218 net1010
*219 net1011
*220 net1012
*221 net1013
*222 net1014
*223 net1015
*224 net1016
*225 net1017
*226 net1018
*227 net1019
*228 net102
*229 net1020
*230 net1021
*231 net1022
*232 net1023
*233 net1024
*234 net1025
*235 net1026
*236 net1027
*237 net1028
*238 net1029
*239 net103
*240 net104
*241 net105
*242 net106
*243 net107
*244 net108
*245 net109
*246 net11
*247 net110
*248 net111
*249 net112
*250 net113
*251 net114
*252 net115
*253 net116
*254 net117
*255 net118
*256 net119
*257 net12
*258 net120
*259 net121
*260 net122
*261 net123
*262 net124
*263 net125
*264 net126
*265 net127
*266 net128
*267 net129
*268 net13
*269 net130
*270 net131
*271 net132
*272 net133
*273 net134
*274 net135
*275 net136
*276 net137
*277 net138
*278 net139
*279 net14
*280 net140
*281 net141
*282 net142
*283 net143
*284 net144
*285 net145
*286 net146
*287 net147
*288 net148
*289 net149
*290 net15
*291 net150
*292 net151
*293 net152
*294 net153
*295 net154
*296 net155
*297 net156
*298 net157
*299 net158
*300 net159
*301 net16
*302 net160
*303 net161
*304 net162
*305 net163
*306 net164
*307 net165
*308 net166
*309 net167
*310 net168
*311 net169
*312 net17
*313 net170
*314 net171
*315 net172
*316 net173
*317 net174
*318 net175
*319 net176
*320 net177
*321 net178
*322 net179
*323 net18
*324 net180
*325 net181
*326 net182
*327 net183
*328 net184
*329 net185
*330 net186
*331 net187
*332 net188
*333 net189
*334 net19
*335 net190
*336 net191
*337 net192
*338 net193
*339 net194
*340 net195
*341 net196
*342 net197
*343 net198
*344 net199
*345 net2
*346 net20
*347 net200
*348 net201
*349 net202
*350 net203
*351 net204
*352 net205
*353 net206
*354 net207
*355 net208
*356 net209
*357 net21
*358 net210
*359 net211
*360 net212
*361 net213
*362 net214
*363 net215
*364 net216
*365 net217
*366 net218
*367 net219
*368 net22
*369 net220
*370 net221
*371 net222
*372 net223
*373 net224
*374 net225
*375 net226
*376 net227
*377 net228
*378 net229
*379 net23
*380 net230
*381 net231
*382 net232
*383 net233
*384 net234
*385 net235
*386 net236
*387 net237
*388 net238
*389 net239
*390 net24
*391 net240
*392 net241
*393 net242
*394 net243
*395 net244
*396 net245
*397 net246
*398 net247
*399 net248
*400 net249
*401 net25
*402 net250
*403 net251
*404 net252
*405 net253
*406 net254
*407 net255
*408 net256
*409 net257
*410 net258
*411 net259
*412 net26
*413 net260
*414 net261
*415 net262
*416 net263
*417 net264
*418 net265
*419 net266
*420 net267
*421 net268
*422 net269
*423 net27
*424 net270
*425 net271
*426 net272
*427 net273
*428 net274
*429 net275
*430 net276
*431 net277
*432 net278
*433 net279
*434 net28
*435 net280
*436 net281
*437 net282
*438 net283
*439 net284
*440 net285
*441 net286
*442 net287
*443 net288
*444 net289
*445 net29
*446 net290
*447 net291
*448 net292
*449 net293
*450 net294
*451 net295
*452 net296
*453 net297
*454 net298
*455 net299
*456 net3
*457 net30
*458 net300
*459 net301
*460 net302
*461 net303
*462 net304
*463 net305
*464 net306
*465 net307
*466 net308
*467 net309
*468 net31
*469 net310
*470 net311
*471 net312
*472 net313
*473 net314
*474 net315
*475 net316
*476 net317
*477 net318
*478 net319
*479 net32
*480 net320
*481 net321
*482 net322
*483 net323
*484 net324
*485 net325
*486 net326
*487 net327
*488 net328
*489 net329
*490 net33
*491 net330
*492 net331
*493 net332
*494 net333
*495 net334
*496 net335
*497 net336
*498 net337
*499 net338
*500 net339
*501 net34
*502 net340
*503 net341
*504 net342
*505 net343
*506 net344
*507 net345
*508 net346
*509 net347
*510 net348
*511 net349
*512 net35
*513 net350
*514 net351
*515 net352
*516 net353
*517 net354
*518 net355
*519 net356
*520 net357
*521 net358
*522 net359
*523 net36
*524 net360
*525 net361
*526 net362
*527 net363
*528 net364
*529 net365
*530 net366
*531 net367
*532 net368
*533 net369
*534 net37
*535 net370
*536 net371
*537 net372
*538 net373
*539 net374
*540 net375
*541 net376
*542 net377
*543 net378
*544 net379
*545 net38
*546 net380
*547 net381
*548 net382
*549 net383
*550 net384
*551 net385
*552 net386
*553 net387
*554 net388
*555 net389
*556 net39
*557 net390
*558 net391
*559 net392
*560 net393
*561 net394
*562 net395
*563 net396
*564 net397
*565 net398
*566 net399
*567 net4
*568 net40
*569 net400
*570 net401
*571 net402
*572 net403
*573 net404
*574 net405
*575 net406
*576 net407
*577 net408
*578 net409
*579 net41
*580 net410
*581 net411
*582 net412
*583 net413
*584 net414
*585 net415
*586 net416
*587 net417
*588 net418
*589 net419
*590 net42
*591 net420
*592 net421
*593 net422
*594 net423
*595 net424
*596 net425
*597 net426
*598 net427
*599 net428
*600 net429
*601 net43
*602 net430
*603 net431
*604 net432
*605 net433
*606 net434
*607 net435
*608 net436
*609 net437
*610 net438
*611 net439
*612 net44
*613 net440
*614 net441
*615 net442
*616 net443
*617 net444
*618 net445
*619 net446
*620 net447
*621 net448
*622 net449
*623 net45
*624 net450
*625 net451
*626 net452
*627 net453
*628 net454
*629 net455
*630 net456
*631 net457
*632 net458
*633 net459
*634 net46
*635 net460
*636 net461
*637 net462
*638 net463
*639 net464
*640 net465
*641 net466
*642 net467
*643 net468
*644 net469
*645 net47
*646 net470
*647 net471
*648 net472
*649 net473
*650 net474
*651 net475
*652 net476
*653 net477
*654 net478
*655 net479
*656 net48
*657 net480
*658 net481
*659 net482
*660 net483
*661 net484
*662 net485
*663 net486
*664 net487
*665 net488
*666 net489
*667 net49
*668 net490
*669 net491
*670 net492
*671 net493
*672 net494
*673 net495
*674 net496
*675 net497
*676 net498
*677 net499
*678 net5
*679 net50
*680 net500
*681 net501
*682 net502
*683 net503
*684 net504
*685 net505
*686 net506
*687 net507
*688 net508
*689 net509
*690 net51
*691 net510
*692 net511
*693 net512
*694 net513
*695 net514
*696 net515
*697 net516
*698 net517
*699 net518
*700 net519
*701 net52
*702 net520
*703 net521
*704 net522
*705 net523
*706 net524
*707 net525
*708 net526
*709 net527
*710 net528
*711 net529
*712 net53
*713 net530
*714 net531
*715 net532
*716 net533
*717 net534
*718 net535
*719 net536
*720 net537
*721 net538
*722 net539
*723 net54
*724 net540
*725 net541
*726 net542
*727 net543
*728 net544
*729 net545
*730 net546
*731 net547
*732 net548
*733 net549
*734 net55
*735 net550
*736 net551
*737 net552
*738 net553
*739 net554
*740 net555
*741 net556
*742 net557
*743 net558
*744 net559
*745 net56
*746 net560
*747 net561
*748 net562
*749 net563
*750 net564
*751 net565
*752 net566
*753 net567
*754 net568
*755 net569
*756 net57
*757 net570
*758 net571
*759 net572
*760 net573
*761 net574
*762 net575
*763 net576
*764 net577
*765 net578
*766 net579
*767 net58
*768 net580
*769 net581
*770 net582
*771 net583
*772 net584
*773 net585
*774 net586
*775 net587
*776 net588
*777 net589
*778 net59
*779 net590
*780 net591
*781 net592
*782 net593
*783 net594
*784 net595
*785 net596
*786 net597
*787 net598
*788 net599
*789 net6
*790 net60
*791 net600
*792 net601
*793 net602
*794 net603
*795 net604
*796 net605
*797 net606
*798 net607
*799 net608
*800 net609
*801 net61
*802 net610
*803 net611
*804 net612
*805 net613
*806 net614
*807 net615
*808 net616
*809 net617
*810 net618
*811 net619
*812 net62
*813 net620
*814 net621
*815 net622
*816 net623
*817 net624
*818 net625
*819 net626
*820 net627
*821 net628
*822 net629
*823 net63
*824 net630
*825 net631
*826 net632
*827 net633
*828 net634
*829 net635
*830 net636
*831 net637
*832 net638
*833 net639
*834 net64
*835 net640
*836 net641
*837 net642
*838 net643
*839 net644
*840 net645
*841 net646
*842 net647
*843 net648
*844 net649
*845 net65
*846 net650
*847 net651
*848 net652
*849 net653
*850 net654
*851 net655
*852 net656
*853 net657
*854 net658
*855 net659
*856 net66
*857 net660
*858 net661
*859 net662
*860 net663
*861 net664
*862 net665
*863 net666
*864 net667
*865 net668
*866 net669
*867 net67
*868 net670
*869 net671
*870 net672
*871 net673
*872 net674
*873 net675
*874 net676
*875 net677
*876 net678
*877 net679
*878 net68
*879 net680
*880 net681
*881 net682
*882 net683
*883 net684
*884 net685
*885 net686
*886 net687
*887 net688
*888 net689
*889 net69
*890 net690
*891 net691
*892 net692
*893 net693
*894 net694
*895 net695
*896 net696
*897 net697
*898 net698
*899 net699
*900 net7
*901 net70
*902 net700
*903 net701
*904 net702
*905 net703
*906 net704
*907 net705
*908 net706
*909 net707
*910 net708
*911 net709
*912 net71
*913 net710
*914 net711
*915 net712
*916 net713
*917 net714
*918 net715
*919 net716
*920 net717
*921 net718
*922 net719
*923 net72
*924 net720
*925 net721
*926 net722
*927 net723
*928 net724
*929 net725
*930 net726
*931 net727
*932 net728
*933 net729
*934 net73
*935 net730
*936 net731
*937 net732
*938 net733
*939 net734
*940 net735
*941 net736
*942 net737
*943 net738
*944 net739
*945 net74
*946 net740
*947 net741
*948 net742
*949 net743
*950 net744
*951 net745
*952 net746
*953 net747
*954 net748
*955 net749
*956 net75
*957 net750
*958 net751
*959 net752
*960 net753
*961 net754
*962 net755
*963 net756
*964 net757
*965 net758
*966 net759
*967 net76
*968 net760
*969 net761
*970 net762
*971 net763
*972 net764
*973 net765
*974 net766
*975 net767
*976 net768
*977 net769
*978 net77
*979 net770
*980 net771
*981 net772
*982 net773
*983 net774
*984 net775
*985 net776
*986 net777
*987 net778
*988 net779
*989 net78
*990 net780
*991 net781
*992 net782
*993 net783
*994 net784
*995 net785
*996 net786
*997 net787
*998 net788
*999 net789
*1000 net79
*1001 net790
*1002 net791
*1003 net792
*1004 net793
*1005 net794
*1006 net795
*1007 net796
*1008 net797
*1009 net798
*1010 net799
*1011 net8
*1012 net80
*1013 net800
*1014 net801
*1015 net802
*1016 net803
*1017 net804
*1018 net805
*1019 net806
*1020 net807
*1021 net808
*1022 net809
*1023 net81
*1024 net810
*1025 net811
*1026 net812
*1027 net813
*1028 net814
*1029 net815
*1030 net816
*1031 net817
*1032 net818
*1033 net819
*1034 net82
*1035 net820
*1036 net821
*1037 net822
*1038 net823
*1039 net824
*1040 net825
*1041 net826
*1042 net827
*1043 net828
*1044 net829
*1045 net83
*1046 net830
*1047 net831
*1048 net832
*1049 net833
*1050 net834
*1051 net835
*1052 net836
*1053 net837
*1054 net838
*1055 net839
*1056 net84
*1057 net840
*1058 net841
*1059 net842
*1060 net843
*1061 net844
*1062 net845
*1063 net846
*1064 net847
*1065 net848
*1066 net849
*1067 net85
*1068 net850
*1069 net851
*1070 net852
*1071 net853
*1072 net854
*1073 net855
*1074 net856
*1075 net857
*1076 net858
*1077 net859
*1078 net86
*1079 net860
*1080 net861
*1081 net862
*1082 net863
*1083 net864
*1084 net865
*1085 net866
*1086 net867
*1087 net868
*1088 net869
*1089 net87
*1090 net870
*1091 net871
*1092 net872
*1093 net873
*1094 net874
*1095 net875
*1096 net876
*1097 net877
*1098 net878
*1099 net879
*1100 net88
*1101 net880
*1102 net881
*1103 net882
*1104 net883
*1105 net884
*1106 net885
*1107 net886
*1108 net887
*1109 net888
*1110 net889
*1111 net89
*1112 net890
*1113 net891
*1114 net892
*1115 net893
*1116 net894
*1117 net895
*1118 net896
*1119 net897
*1120 net898
*1121 net899
*1122 net9
*1123 net90
*1124 net900
*1125 net901
*1126 net902
*1127 net903
*1128 net904
*1129 net905
*1130 net906
*1131 net907
*1132 net908
*1133 net909
*1134 net91
*1135 net910
*1136 net911
*1137 net912
*1138 net913
*1139 net914
*1140 net915
*1141 net916
*1142 net917
*1143 net918
*1144 net919
*1145 net92
*1146 net920
*1147 net921
*1148 net922
*1149 net923
*1150 net924
*1151 net925
*1152 net926
*1153 net927
*1154 net928
*1155 net929
*1156 net93
*1157 net930
*1158 net931
*1159 net932
*1160 net933
*1161 net934
*1162 net935
*1163 net936
*1164 net937
*1165 net938
*1166 net939
*1167 net94
*1168 net940
*1169 net941
*1170 net942
*1171 net943
*1172 net944
*1173 net945
*1174 net946
*1175 net947
*1176 net948
*1177 net949
*1178 net95
*1179 net950
*1180 net951
*1181 net952
*1182 net953
*1183 net954
*1184 net955
*1185 net956
*1186 net957
*1187 net958
*1188 net959
*1189 net96
*1190 net960
*1191 net961
*1192 net962
*1193 net963
*1194 net964
*1195 net965
*1196 net966
*1197 net967
*1198 net968
*1199 net969
*1200 net97
*1201 net970
*1202 net971
*1203 net972
*1204 net973
*1205 net974
*1206 net975
*1207 net976
*1208 net977
*1209 net978
*1210 net979
*1211 net98
*1212 net980
*1213 net981
*1214 net982
*1215 net983
*1216 net984
*1217 net985
*1218 net986
*1219 net987
*1220 net988
*1221 net989
*1222 net99
*1223 net990
*1224 net991
*1225 net992
*1226 net993
*1227 net994
*1228 net995
*1229 net996
*1230 net997
*1231 net998
*1232 net999
*1233 ANTENNA_c100_A
*1234 ANTENNA_c101_X
*1235 ANTENNA_c102_A
*1236 ANTENNA_c103_B1_N
*1237 ANTENNA_c103_X
*1238 ANTENNA_c104_A
*1239 ANTENNA_c105_A1
*1240 ANTENNA_c105_A2
*1241 ANTENNA_c105_B1_N
*1242 ANTENNA_c106_A3
*1243 ANTENNA_c106_B1
*1244 ANTENNA_c107_B
*1245 ANTENNA_c108_B1_N
*1246 ANTENNA_c109_CLK_N
*1247 ANTENNA_c110_B
*1248 ANTENNA_c111_B
*1249 ANTENNA_c112_A1
*1250 ANTENNA_c112_B1_N
*1251 ANTENNA_c113_A1
*1252 ANTENNA_c113_B1_N
*1253 ANTENNA_c118_B
*1254 ANTENNA_c119_B
*1255 ANTENNA_c120_B
*1256 ANTENNA_c123_Y
*1257 ANTENNA_c124_B1_N
*1258 ANTENNA_c126_A2
*1259 ANTENNA_c126_A4
*1260 ANTENNA_c126_B1
*1261 ANTENNA_c127_A3
*1262 ANTENNA_c128_B1
*1263 ANTENNA_c129_CLK_N
*1264 ANTENNA_c129_SCD
*1265 ANTENNA_c129_SET_B
*1266 ANTENNA_c130_CLK_N
*1267 ANTENNA_c130_D
*1268 ANTENNA_c130_SCE
*1269 ANTENNA_c131_A2
*1270 ANTENNA_c132_A
*1271 ANTENNA_c132_B
*1272 ANTENNA_c132_Y
*1273 ANTENNA_c133_A
*1274 ANTENNA_c133_B
*1275 ANTENNA_c133_Y
*1276 ANTENNA_c134_A
*1277 ANTENNA_c134_B
*1278 ANTENNA_c135_A
*1279 ANTENNA_c135_B
*1280 ANTENNA_c136_A
*1281 ANTENNA_c136_B
*1282 ANTENNA_c137_B
*1283 ANTENNA_c137_Y
*1284 ANTENNA_c138_A
*1285 ANTENNA_c138_B
*1286 ANTENNA_c139_A
*1287 ANTENNA_c139_B
*1288 ANTENNA_c140_A1
*1289 ANTENNA_c140_B1_N
*1290 ANTENNA_c140_X
*1291 ANTENNA_c141_A
*1292 ANTENNA_c141_B
*1293 ANTENNA_c142_A1
*1294 ANTENNA_c142_A2
*1295 ANTENNA_c142_B1_N
*1296 ANTENNA_c142_X
*1297 ANTENNA_c143_B
*1298 ANTENNA_c143_Y
*1299 ANTENNA_c144_A
*1300 ANTENNA_c144_Y
*1301 ANTENNA_c145_A
*1302 ANTENNA_c146_A
*1303 ANTENNA_c146_Y
*1304 ANTENNA_c147_A0
*1305 ANTENNA_c147_A1
*1306 ANTENNA_c147_A2
*1307 ANTENNA_c147_A3
*1308 ANTENNA_c147_S0
*1309 ANTENNA_c147_S1
*1310 ANTENNA_c148_A
*1311 ANTENNA_c148_B
*1312 ANTENNA_c149_B
*1313 ANTENNA_c149_Y
*1314 ANTENNA_c150_A
*1315 ANTENNA_c150_B
*1316 ANTENNA_c151_A1
*1317 ANTENNA_c151_B1_N
*1318 ANTENNA_c151_X
*1319 ANTENNA_c152_B1_N
*1320 ANTENNA_c152_X
*1321 ANTENNA_c153_A
*1322 ANTENNA_c153_B
*1323 ANTENNA_c153_Y
*1324 ANTENNA_c154_B
*1325 ANTENNA_c154_Y
*1326 ANTENNA_c155_A
*1327 ANTENNA_c156_A
*1328 ANTENNA_c157_A2
*1329 ANTENNA_c157_A3
*1330 ANTENNA_c157_A4
*1331 ANTENNA_c157_B1
*1332 ANTENNA_c158_A
*1333 ANTENNA_c158_B
*1334 ANTENNA_c158_Y
*1335 ANTENNA_c159_A
*1336 ANTENNA_c160_B
*1337 ANTENNA_c160_Y
*1338 ANTENNA_c161_A1
*1339 ANTENNA_c161_A2
*1340 ANTENNA_c161_B1
*1341 ANTENNA_c162_A1
*1342 ANTENNA_c162_A2
*1343 ANTENNA_c162_B1_N
*1344 ANTENNA_c162_X
*1345 ANTENNA_c163_A1
*1346 ANTENNA_c163_B1_N
*1347 ANTENNA_c164_A2
*1348 ANTENNA_c164_A3
*1349 ANTENNA_c164_A4
*1350 ANTENNA_c164_B1
*1351 ANTENNA_c164_X
*1352 ANTENNA_c165_B
*1353 ANTENNA_c165_Y
*1354 ANTENNA_c166_A1
*1355 ANTENNA_c166_A2
*1356 ANTENNA_c166_A3
*1357 ANTENNA_c166_B1
*1358 ANTENNA_c167_B
*1359 ANTENNA_c167_Y
*1360 ANTENNA_c168_A1
*1361 ANTENNA_c168_A3
*1362 ANTENNA_c168_A4
*1363 ANTENNA_c168_B1
*1364 ANTENNA_c168_X
*1365 ANTENNA_c169_B
*1366 ANTENNA_c169_Y
*1367 ANTENNA_c170_A1
*1368 ANTENNA_c170_A3
*1369 ANTENNA_c170_B1
*1370 ANTENNA_c171_A1
*1371 ANTENNA_c171_A3
*1372 ANTENNA_c171_B1
*1373 ANTENNA_c171_X
*1374 ANTENNA_c172_A1
*1375 ANTENNA_c172_A2
*1376 ANTENNA_c172_A4
*1377 ANTENNA_c172_B1
*1378 ANTENNA_c172_X
*1379 ANTENNA_c173_A1
*1380 ANTENNA_c173_A2
*1381 ANTENNA_c173_A3
*1382 ANTENNA_c174_B
*1383 ANTENNA_c174_Y
*1384 ANTENNA_c175_A1
*1385 ANTENNA_c175_A4
*1386 ANTENNA_c175_B1
*1387 ANTENNA_c175_X
*1388 ANTENNA_c176_A1
*1389 ANTENNA_c176_A2
*1390 ANTENNA_c176_B1_N
*1391 ANTENNA_c176_X
*1392 ANTENNA_c177_A1
*1393 ANTENNA_c177_B1_N
*1394 ANTENNA_c177_X
*1395 ANTENNA_c178_A1
*1396 ANTENNA_c178_A2
*1397 ANTENNA_c178_B1_N
*1398 ANTENNA_c178_X
*1399 ANTENNA_c179_A
*1400 ANTENNA_c179_B
*1401 ANTENNA_c180_A1
*1402 ANTENNA_c180_A2
*1403 ANTENNA_c180_B1_N
*1404 ANTENNA_c181_A
*1405 ANTENNA_c181_B
*1406 ANTENNA_c182_A2
*1407 ANTENNA_c183_A1
*1408 ANTENNA_c183_A2
*1409 ANTENNA_c183_B1_N
*1410 ANTENNA_c183_X
*1411 ANTENNA_c184_A2
*1412 ANTENNA_c184_A3
*1413 ANTENNA_c184_X
*1414 ANTENNA_c185_A2
*1415 ANTENNA_c185_A3
*1416 ANTENNA_c185_B1
*1417 ANTENNA_c185_X
*1418 ANTENNA_c186_B
*1419 ANTENNA_c186_Y
*1420 ANTENNA_c187_A1
*1421 ANTENNA_c187_B1_N
*1422 ANTENNA_c187_X
*1423 ANTENNA_c188_A2
*1424 ANTENNA_c188_A3
*1425 ANTENNA_c188_X
*1426 ANTENNA_c189_A2
*1427 ANTENNA_c189_A3
*1428 ANTENNA_c189_S0
*1429 ANTENNA_c189_S1
*1430 ANTENNA_c189_X
*1431 ANTENNA_c190_A1
*1432 ANTENNA_c190_A3
*1433 ANTENNA_c190_B1
*1434 ANTENNA_c191_A1
*1435 ANTENNA_c191_A2
*1436 ANTENNA_c191_A3
*1437 ANTENNA_c191_B1
*1438 ANTENNA_c191_X
*1439 ANTENNA_c192_A2
*1440 ANTENNA_c192_A3
*1441 ANTENNA_c192_S0
*1442 ANTENNA_c192_S1
*1443 ANTENNA_c193_A1
*1444 ANTENNA_c193_A2
*1445 ANTENNA_c193_B1_N
*1446 ANTENNA_c193_X
*1447 ANTENNA_c194_A1
*1448 ANTENNA_c194_A2
*1449 ANTENNA_c194_B1_N
*1450 ANTENNA_c195_A2
*1451 ANTENNA_c195_A3
*1452 ANTENNA_c195_B1
*1453 ANTENNA_c195_X
*1454 ANTENNA_c196_A0
*1455 ANTENNA_c196_A2
*1456 ANTENNA_c196_S0
*1457 ANTENNA_c196_S1
*1458 ANTENNA_c197_A1
*1459 ANTENNA_c197_A3
*1460 ANTENNA_c197_S0
*1461 ANTENNA_c198_A2
*1462 ANTENNA_c198_B1_N
*1463 ANTENNA_c198_X
*1464 ANTENNA_c199_A
*1465 ANTENNA_c199_Y
*1466 ANTENNA_c200_A1
*1467 ANTENNA_c200_B1_N
*1468 ANTENNA_c201_A1
*1469 ANTENNA_c201_A3
*1470 ANTENNA_c201_A4
*1471 ANTENNA_c201_B1
*1472 ANTENNA_c202_B1_N
*1473 ANTENNA_c203_A1
*1474 ANTENNA_c203_A2
*1475 ANTENNA_c204_A1
*1476 ANTENNA_c204_A2
*1477 ANTENNA_c204_B1_N
*1478 ANTENNA_c205_B1_N
*1479 ANTENNA_c206_A2
*1480 ANTENNA_c206_B1
*1481 ANTENNA_c207_B1_N
*1482 ANTENNA_c207_X
*1483 ANTENNA_c208_B
*1484 ANTENNA_c208_Y
*1485 ANTENNA_c209_A1
*1486 ANTENNA_c210_A2
*1487 ANTENNA_c210_A3
*1488 ANTENNA_c210_B1
*1489 ANTENNA_c210_X
*1490 ANTENNA_c211_A2
*1491 ANTENNA_c212_A1
*1492 ANTENNA_c212_A3
*1493 ANTENNA_c212_B1
*1494 ANTENNA_c213_A2
*1495 ANTENNA_c213_A3
*1496 ANTENNA_c213_B1
*1497 ANTENNA_c214_A2
*1498 ANTENNA_c214_B1_N
*1499 ANTENNA_c215_A2
*1500 ANTENNA_c215_A3
*1501 ANTENNA_c215_X
*1502 ANTENNA_c216_A3
*1503 ANTENNA_c218_X
*1504 ANTENNA_c219_S1
*1505 ANTENNA_c221_A
*1506 ANTENNA_c221_B
*1507 ANTENNA_c223_A1
*1508 ANTENNA_c223_B1_N
*1509 ANTENNA_c224_A2
*1510 ANTENNA_c224_B1_N
*1511 ANTENNA_c224_X
*1512 ANTENNA_c226_A1
*1513 ANTENNA_c226_A2
*1514 ANTENNA_c226_B1_N
*1515 ANTENNA_c227_A1
*1516 ANTENNA_c227_A2
*1517 ANTENNA_c227_A3
*1518 ANTENNA_c228_A2
*1519 ANTENNA_c229_A
*1520 ANTENNA_c230_A
*1521 ANTENNA_c230_B
*1522 ANTENNA_c231_B1_N
*1523 ANTENNA_c233_A1
*1524 ANTENNA_c234_A2
*1525 ANTENNA_c234_B1_N
*1526 ANTENNA_c234_X
*1527 ANTENNA_c236_A2
*1528 ANTENNA_c236_A3
*1529 ANTENNA_c236_B1
*1530 ANTENNA_c237_X
*1531 ANTENNA_c238_A2
*1532 ANTENNA_c238_A3
*1533 ANTENNA_c238_A4
*1534 ANTENNA_c238_B1
*1535 ANTENNA_c238_X
*1536 ANTENNA_c240_A3
*1537 ANTENNA_c240_A4
*1538 ANTENNA_c240_B1
*1539 ANTENNA_c241_A2
*1540 ANTENNA_c242_A1
*1541 ANTENNA_c242_A2
*1542 ANTENNA_c243_B1_N
*1543 ANTENNA_c244_A2
*1544 ANTENNA_c244_A3
*1545 ANTENNA_c244_B1
*1546 ANTENNA_c245_A2
*1547 ANTENNA_c245_B1_N
*1548 ANTENNA_c245_X
*1549 ANTENNA_c246_B1_N
*1550 ANTENNA_c247_A1
*1551 ANTENNA_c247_A3
*1552 ANTENNA_c247_B1
*1553 ANTENNA_c248_A0
*1554 ANTENNA_c248_A2
*1555 ANTENNA_c248_A3
*1556 ANTENNA_c248_S0
*1557 ANTENNA_c248_S1
*1558 ANTENNA_c250_A1
*1559 ANTENNA_c250_A2
*1560 ANTENNA_c250_A3
*1561 ANTENNA_c252_CLK
*1562 ANTENNA_c252_D
*1563 ANTENNA_c252_RESET_B
*1564 ANTENNA_c252_SCE
*1565 ANTENNA_c252_SET_B
*1566 ANTENNA_c253_A2
*1567 ANTENNA_c253_A3
*1568 ANTENNA_c253_A4
*1569 ANTENNA_c253_B1
*1570 ANTENNA_c254_B1_N
*1571 ANTENNA_c255_A1
*1572 ANTENNA_c256_CLK_N
*1573 ANTENNA_c256_SCE
*1574 ANTENNA_c257_A4
*1575 ANTENNA_c257_B1
*1576 ANTENNA_c259_CLK_N
*1577 ANTENNA_c259_SCD
*1578 ANTENNA_c260_CLK
*1579 ANTENNA_c260_RESET_B
*1580 ANTENNA_c260_SCE
*1581 ANTENNA_c262_A1
*1582 ANTENNA_c263_A1
*1583 ANTENNA_c263_A3
*1584 ANTENNA_c263_A4
*1585 ANTENNA_c264_A
*1586 ANTENNA_c264_B
*1587 ANTENNA_c265_B
*1588 ANTENNA_c266_A1
*1589 ANTENNA_c266_A2
*1590 ANTENNA_c266_X
*1591 ANTENNA_c267_A
*1592 ANTENNA_c268_A
*1593 ANTENNA_c268_B
*1594 ANTENNA_c269_A
*1595 ANTENNA_c270_A
*1596 ANTENNA_c270_B
*1597 ANTENNA_c272_A
*1598 ANTENNA_c272_Y
*1599 ANTENNA_c273_A2
*1600 ANTENNA_c273_A3
*1601 ANTENNA_c273_B1
*1602 ANTENNA_c276_A1
*1603 ANTENNA_c276_X
*1604 ANTENNA_c277_A1
*1605 ANTENNA_c277_X
*1606 ANTENNA_c278_Y
*1607 ANTENNA_c279_B
*1608 ANTENNA_c280_A2
*1609 ANTENNA_c280_A4
*1610 ANTENNA_c281_B
*1611 ANTENNA_c281_Y
*1612 ANTENNA_c283_B
*1613 ANTENNA_c283_Y
*1614 ANTENNA_c284_A1
*1615 ANTENNA_c284_A3
*1616 ANTENNA_c284_A4
*1617 ANTENNA_c284_B1
*1618 ANTENNA_c285_A1
*1619 ANTENNA_c285_A2
*1620 ANTENNA_c285_A3
*1621 ANTENNA_c286_B
*1622 ANTENNA_c287_A
*1623 ANTENNA_c287_Y
*1624 ANTENNA_c288_B1_N
*1625 ANTENNA_c288_X
*1626 ANTENNA_c289_A2
*1627 ANTENNA_c289_X
*1628 ANTENNA_c290_A
*1629 ANTENNA_c290_Y
*1630 ANTENNA_c291_Y
*1631 ANTENNA_c292_A
*1632 ANTENNA_c292_B
*1633 ANTENNA_c293_A
*1634 ANTENNA_c293_B
*1635 ANTENNA_c294_A0
*1636 ANTENNA_c294_A1
*1637 ANTENNA_c294_A2
*1638 ANTENNA_c294_S0
*1639 ANTENNA_c294_S1
*1640 ANTENNA_c295_B
*1641 ANTENNA_c295_Y
*1642 ANTENNA_c296_A1
*1643 ANTENNA_c296_A3
*1644 ANTENNA_c296_B1
*1645 ANTENNA_c296_X
*1646 ANTENNA_c297_B
*1647 ANTENNA_c297_Y
*1648 ANTENNA_c298_A
*1649 ANTENNA_c299_A
*1650 ANTENNA_c299_B
*1651 ANTENNA_c299_Y
*1652 ANTENNA_c300_A2
*1653 ANTENNA_c300_A3
*1654 ANTENNA_c300_B1
*1655 ANTENNA_c300_X
*1656 ANTENNA_c301_A1
*1657 ANTENNA_c301_A2
*1658 ANTENNA_c301_B1_N
*1659 ANTENNA_c301_X
*1660 ANTENNA_c302_X
*1661 ANTENNA_c303_A2
*1662 ANTENNA_c303_A3
*1663 ANTENNA_c303_B1
*1664 ANTENNA_c304_A1
*1665 ANTENNA_c304_A2
*1666 ANTENNA_c304_A3
*1667 ANTENNA_c304_B1
*1668 ANTENNA_c305_A3
*1669 ANTENNA_c306_B1_N
*1670 ANTENNA_c307_A2
*1671 ANTENNA_c307_A3
*1672 ANTENNA_c308_A
*1673 ANTENNA_c308_B
*1674 ANTENNA_c309_A1
*1675 ANTENNA_c309_A4
*1676 ANTENNA_c309_B1
*1677 ANTENNA_c309_X
*1678 ANTENNA_c310_A1
*1679 ANTENNA_c310_A2
*1680 ANTENNA_c310_A3
*1681 ANTENNA_c310_B1
*1682 ANTENNA_c311_A2
*1683 ANTENNA_c311_X
*1684 ANTENNA_c312_B
*1685 ANTENNA_c313_A
*1686 ANTENNA_c314_A1
*1687 ANTENNA_c314_B1_N
*1688 ANTENNA_c315_B
*1689 ANTENNA_c315_Y
*1690 ANTENNA_c316_B1_N
*1691 ANTENNA_c316_X
*1692 ANTENNA_c317_A2
*1693 ANTENNA_c318_X
*1694 ANTENNA_c319_A2
*1695 ANTENNA_c319_B1_N
*1696 ANTENNA_c320_B
*1697 ANTENNA_c321_A
*1698 ANTENNA_c321_Y
*1699 ANTENNA_c322_A1
*1700 ANTENNA_c322_B1_N
*1701 ANTENNA_c322_X
*1702 ANTENNA_c323_X
*1703 ANTENNA_c324_A
*1704 ANTENNA_c324_B
*1705 ANTENNA_c324_Y
*1706 ANTENNA_c325_A0
*1707 ANTENNA_c325_A1
*1708 ANTENNA_c325_A3
*1709 ANTENNA_c325_S0
*1710 ANTENNA_c325_S1
*1711 ANTENNA_c327_A3
*1712 ANTENNA_c327_A4
*1713 ANTENNA_c327_X
*1714 ANTENNA_c328_A1
*1715 ANTENNA_c328_A3
*1716 ANTENNA_c328_S0
*1717 ANTENNA_c328_S1
*1718 ANTENNA_c329_A1
*1719 ANTENNA_c329_A2
*1720 ANTENNA_c329_A3
*1721 ANTENNA_c329_S1
*1722 ANTENNA_c330_A2
*1723 ANTENNA_c330_A3
*1724 ANTENNA_c330_B1
*1725 ANTENNA_c330_X
*1726 ANTENNA_c331_A2
*1727 ANTENNA_c331_B1_N
*1728 ANTENNA_c332_A0
*1729 ANTENNA_c332_A1
*1730 ANTENNA_c332_A2
*1731 ANTENNA_c332_S1
*1732 ANTENNA_c333_CLK_N
*1733 ANTENNA_c333_SCD
*1734 ANTENNA_c333_SCE
*1735 ANTENNA_c333_SET_B
*1736 ANTENNA_c334_A1
*1737 ANTENNA_c334_A2
*1738 ANTENNA_c334_A3
*1739 ANTENNA_c335_CLK
*1740 ANTENNA_c335_SCD
*1741 ANTENNA_c335_SCE
*1742 ANTENNA_c336_CLK_N
*1743 ANTENNA_c336_SCD
*1744 ANTENNA_c336_SET_B
*1745 ANTENNA_c337_A2
*1746 ANTENNA_c337_A3
*1747 ANTENNA_c337_A4
*1748 ANTENNA_c338_A2
*1749 ANTENNA_c338_S0
*1750 ANTENNA_c338_X
*1751 ANTENNA_c339_A2
*1752 ANTENNA_c340_A2
*1753 ANTENNA_c340_B1_N
*1754 ANTENNA_c340_X
*1755 ANTENNA_c341_A2
*1756 ANTENNA_c341_B1
*1757 ANTENNA_c342_SCD
*1758 ANTENNA_c342_SCE
*1759 ANTENNA_c343_Q
*1760 ANTENNA_c343_Q_N
*1761 ANTENNA_c343_RESET_B
*1762 ANTENNA_c343_SCD
*1763 ANTENNA_c343_SCE
*1764 ANTENNA_c343_SET_B
*1765 ANTENNA_c344_X
*1766 ANTENNA_c345_A3
*1767 ANTENNA_c345_X
*1768 ANTENNA_c346_A1
*1769 ANTENNA_c346_A3
*1770 ANTENNA_c346_B1
*1771 ANTENNA_c347_A1
*1772 ANTENNA_c347_A2
*1773 ANTENNA_c347_A3
*1774 ANTENNA_c347_B1
*1775 ANTENNA_c348_A2
*1776 ANTENNA_c349_A1
*1777 ANTENNA_c349_A2
*1778 ANTENNA_c349_A3
*1779 ANTENNA_c349_S1
*1780 ANTENNA_c351_CLK
*1781 ANTENNA_c351_SCE
*1782 ANTENNA_c352_A1
*1783 ANTENNA_c352_A2
*1784 ANTENNA_c352_A3
*1785 ANTENNA_c352_S0
*1786 ANTENNA_c352_S1
*1787 ANTENNA_c353_A1
*1788 ANTENNA_c353_A2
*1789 ANTENNA_c353_A4
*1790 ANTENNA_c354_B1_N
*1791 ANTENNA_c355_A1
*1792 ANTENNA_c355_A2
*1793 ANTENNA_c355_X
*1794 ANTENNA_c356_A2
*1795 ANTENNA_c356_A3
*1796 ANTENNA_c358_A2
*1797 ANTENNA_c358_A3
*1798 ANTENNA_c358_A4
*1799 ANTENNA_c358_B1
*1800 ANTENNA_c359_D
*1801 ANTENNA_c359_Q
*1802 ANTENNA_c359_RESET_B
*1803 ANTENNA_c360_A2
*1804 ANTENNA_c360_A3
*1805 ANTENNA_c361_CLK
*1806 ANTENNA_c361_RESET_B
*1807 ANTENNA_c361_SET_B
*1808 ANTENNA_c362_A1
*1809 ANTENNA_c362_A2
*1810 ANTENNA_c362_A3
*1811 ANTENNA_c362_B1
*1812 ANTENNA_c363_A3
*1813 ANTENNA_c363_B1
*1814 ANTENNA_c363_X
*1815 ANTENNA_c364_A1
*1816 ANTENNA_c364_A3
*1817 ANTENNA_c364_A4
*1818 ANTENNA_c366_CLK_N
*1819 ANTENNA_c366_D
*1820 ANTENNA_c366_Q
*1821 ANTENNA_c366_SCE
*1822 ANTENNA_c367_CLK_N
*1823 ANTENNA_c367_SCE
*1824 ANTENNA_c368_D
*1825 ANTENNA_c368_Q
*1826 ANTENNA_c368_RESET_B
*1827 ANTENNA_c368_SCD
*1828 ANTENNA_c368_SET_B
*1829 ANTENNA_c369_D
*1830 ANTENNA_c369_RESET_B
*1831 ANTENNA_c369_SCE
*1832 ANTENNA_c370_A2
*1833 ANTENNA_c370_B1
*1834 ANTENNA_c371_CLK
*1835 ANTENNA_c392_A0
*1836 ANTENNA_c392_A3
*1837 ANTENNA_c392_S0
*1838 ANTENNA_c392_S1
*1839 ANTENNA_c393_A3
*1840 ANTENNA_c394_A1
*1841 ANTENNA_c395_A0
*1842 ANTENNA_c395_A3
*1843 ANTENNA_c395_S0
*1844 ANTENNA_c396_B
*1845 ANTENNA_c397_A1
*1846 ANTENNA_c397_X
*1847 ANTENNA_c398_A
*1848 ANTENNA_c398_B
*1849 ANTENNA_c399_A1
*1850 ANTENNA_c399_B1_N
*1851 ANTENNA_c400_B
*1852 ANTENNA_c400_Y
*1853 ANTENNA_c401_A
*1854 ANTENNA_c402_A
*1855 ANTENNA_c404_A
*1856 ANTENNA_c404_Y
*1857 ANTENNA_c405_A1
*1858 ANTENNA_c405_B1_N
*1859 ANTENNA_c406_A2
*1860 ANTENNA_c406_B1_N
*1861 ANTENNA_c406_X
*1862 ANTENNA_c407_A1
*1863 ANTENNA_c407_A2
*1864 ANTENNA_c407_A4
*1865 ANTENNA_c407_B1
*1866 ANTENNA_c408_A1
*1867 ANTENNA_c408_A2
*1868 ANTENNA_c408_B1_N
*1869 ANTENNA_c409_B1_N
*1870 ANTENNA_c409_X
*1871 ANTENNA_c410_B