*SPEF "ieee 1481-1999"
*DESIGN "netlist_1"
*DATE "00:12:26 Sunday August 18, 2024"
*VENDOR "The OpenROAD Project"
*PROGRAM "OpenROAD"
*VERSION "d423155d69de7f683a23f6916ead418a615ad4ad"
*DESIGN_FLOW "NAME_SCOPE LOCAL" "PIN_CAP NONE"
*DIVIDER /
*DELIMITER :
*BUS_DELIMITER []
*T_UNIT 1 NS
*C_UNIT 1 PF
*R_UNIT 1 OHM
*L_UNIT 1 HENRY

*NAME_MAP
*3 clk
*4 in0
*5 in1
*6 in10
*7 in11
*8 in12
*9 in13
*10 in14
*11 in15
*12 in16
*13 in17
*14 in18
*15 in19
*16 in2
*17 in20
*18 in21
*19 in22
*20 in23
*21 in24
*22 in3
*23 in4
*24 in5
*25 in6
*26 in7
*27 in8
*28 in9
*29 out0
*30 out1
*31 out10
*32 out11
*33 out12
*34 out13
*35 out14
*36 out15
*37 out16
*38 out17
*39 out18
*40 out19
*41 out2
*42 out20
*43 out21
*44 out22
*45 out23
*46 out24
*47 out3
*48 out4
*49 out5
*50 out6
*51 out7
*52 out8
*53 out9
*54 rst
*55 clknet_0_clk
*56 clknet_0_net183
*57 clknet_0_net185
*58 clknet_0_net186
*59 clknet_0_net187
*60 clknet_0_net188
*61 clknet_0_net190
*62 clknet_0_net191
*63 clknet_0_net194
*64 clknet_0_net248
*65 clknet_0_net251
*66 clknet_0_net252
*67 clknet_0_net255
*68 clknet_0_net256
*69 clknet_0_net264
*70 clknet_0_net278
*71 clknet_0_net284
*72 clknet_0_net285
*73 clknet_0_net287
*74 clknet_0_net303
*75 clknet_0_net306
*76 clknet_0_net308
*77 clknet_0_net318
*78 clknet_0_net319
*79 clknet_0_net321
*80 clknet_0_net518
*81 clknet_0_net519
*82 clknet_0_net520
*83 clknet_0_net521
*84 clknet_0_net523
*85 clknet_0_net524
*86 clknet_0_net525
*87 clknet_0_net527
*88 clknet_0_net530
*89 clknet_0_net566
*90 clknet_0_net640
*91 clknet_0_net709
*92 clknet_0_net710
*93 clknet_0_net714
*94 clknet_0_net721
*95 clknet_0_net724
*96 clknet_0_net725
*97 clknet_0_net726
*98 clknet_0_net727
*99 clknet_0_net730
*100 clknet_0_net733
*101 clknet_0_net761
*102 clknet_0_net779
*103 clknet_0_net794
*104 clknet_0_net95
*105 clknet_0_net96
*106 clknet_0_net97
*107 clknet_1_0__leaf_net183
*108 clknet_1_0__leaf_net185
*109 clknet_1_0__leaf_net186
*110 clknet_1_0__leaf_net187
*111 clknet_1_0__leaf_net188
*112 clknet_1_0__leaf_net190
*113 clknet_1_0__leaf_net191
*114 clknet_1_0__leaf_net194
*115 clknet_1_0__leaf_net248
*116 clknet_1_0__leaf_net251
*117 clknet_1_0__leaf_net252
*118 clknet_1_0__leaf_net255
*119 clknet_1_0__leaf_net256
*120 clknet_1_0__leaf_net264
*121 clknet_1_0__leaf_net278
*122 clknet_1_0__leaf_net284
*123 clknet_1_0__leaf_net285
*124 clknet_1_0__leaf_net287
*125 clknet_1_0__leaf_net303
*126 clknet_1_0__leaf_net306
*127 clknet_1_0__leaf_net308
*128 clknet_1_0__leaf_net318
*129 clknet_1_0__leaf_net319
*130 clknet_1_0__leaf_net321
*131 clknet_1_0__leaf_net518
*132 clknet_1_0__leaf_net519
*133 clknet_1_0__leaf_net520
*134 clknet_1_0__leaf_net521
*135 clknet_1_0__leaf_net523
*136 clknet_1_0__leaf_net524
*137 clknet_1_0__leaf_net525
*138 clknet_1_0__leaf_net527
*139 clknet_1_0__leaf_net530
*140 clknet_1_0__leaf_net566
*141 clknet_1_0__leaf_net640
*142 clknet_1_0__leaf_net709
*143 clknet_1_0__leaf_net710
*144 clknet_1_0__leaf_net714
*145 clknet_1_0__leaf_net721
*146 clknet_1_0__leaf_net724
*147 clknet_1_0__leaf_net725
*148 clknet_1_0__leaf_net726
*149 clknet_1_0__leaf_net727
*150 clknet_1_0__leaf_net730
*151 clknet_1_0__leaf_net733
*152 clknet_1_0__leaf_net761
*153 clknet_1_0__leaf_net779
*154 clknet_1_0__leaf_net794
*155 clknet_1_0__leaf_net95
*156 clknet_1_0__leaf_net96
*157 clknet_1_0__leaf_net97
*158 clknet_1_1__leaf_net183
*159 clknet_1_1__leaf_net185
*160 clknet_1_1__leaf_net186
*161 clknet_1_1__leaf_net187
*162 clknet_1_1__leaf_net188
*163 clknet_1_1__leaf_net190
*164 clknet_1_1__leaf_net191
*165 clknet_1_1__leaf_net194
*166 clknet_1_1__leaf_net248
*167 clknet_1_1__leaf_net251
*168 clknet_1_1__leaf_net252
*169 clknet_1_1__leaf_net255
*170 clknet_1_1__leaf_net256
*171 clknet_1_1__leaf_net264
*172 clknet_1_1__leaf_net278
*173 clknet_1_1__leaf_net284
*174 clknet_1_1__leaf_net285
*175 clknet_1_1__leaf_net287
*176 clknet_1_1__leaf_net303
*177 clknet_1_1__leaf_net306
*178 clknet_1_1__leaf_net308
*179 clknet_1_1__leaf_net318
*180 clknet_1_1__leaf_net319
*181 clknet_1_1__leaf_net321
*182 clknet_1_1__leaf_net518
*183 clknet_1_1__leaf_net519
*184 clknet_1_1__leaf_net520
*185 clknet_1_1__leaf_net521
*186 clknet_1_1__leaf_net523
*187 clknet_1_1__leaf_net524
*188 clknet_1_1__leaf_net525
*189 clknet_1_1__leaf_net527
*190 clknet_1_1__leaf_net530
*191 clknet_1_1__leaf_net566
*192 clknet_1_1__leaf_net640
*193 clknet_1_1__leaf_net709
*194 clknet_1_1__leaf_net710
*195 clknet_1_1__leaf_net714
*196 clknet_1_1__leaf_net721
*197 clknet_1_1__leaf_net724
*198 clknet_1_1__leaf_net725
*199 clknet_1_1__leaf_net726
*200 clknet_1_1__leaf_net727
*201 clknet_1_1__leaf_net730
*202 clknet_1_1__leaf_net733
*203 clknet_1_1__leaf_net761
*204 clknet_1_1__leaf_net779
*205 clknet_1_1__leaf_net794
*206 clknet_1_1__leaf_net95
*207 clknet_1_1__leaf_net96
*208 clknet_1_1__leaf_net97
*209 clknet_2_0__leaf_clk
*210 clknet_2_1__leaf_clk
*211 clknet_2_2__leaf_clk
*212 clknet_2_3__leaf_clk
*213 clknet_leaf_0_clk
*214 clknet_leaf_10_clk
*215 clknet_leaf_11_clk
*216 clknet_leaf_12_clk
*217 clknet_leaf_13_clk
*218 clknet_leaf_14_clk
*219 clknet_leaf_15_clk
*220 clknet_leaf_16_clk
*221 clknet_leaf_17_clk
*222 clknet_leaf_18_clk
*223 clknet_leaf_19_clk
*224 clknet_leaf_1_clk
*225 clknet_leaf_20_clk
*226 clknet_leaf_21_clk
*227 clknet_leaf_22_clk
*228 clknet_leaf_23_clk
*229 clknet_leaf_24_clk
*230 clknet_leaf_25_clk
*231 clknet_leaf_26_clk
*232 clknet_leaf_27_clk
*233 clknet_leaf_28_clk
*234 clknet_leaf_29_clk
*235 clknet_leaf_2_clk
*236 clknet_leaf_30_clk
*237 clknet_leaf_31_clk
*238 clknet_leaf_32_clk
*239 clknet_leaf_33_clk
*240 clknet_leaf_34_clk
*241 clknet_leaf_35_clk
*242 clknet_leaf_36_clk
*243 clknet_leaf_37_clk
*244 clknet_leaf_3_clk
*245 clknet_leaf_4_clk
*246 clknet_leaf_5_clk
*247 clknet_leaf_6_clk
*248 clknet_leaf_7_clk
*249 clknet_leaf_8_clk
*250 clknet_leaf_9_clk
*251 net0
*252 net1
*253 net10
*254 net100
*255 net101
*256 net102
*257 net103
*258 net104
*259 net105
*260 net106
*261 net107
*262 net108
*263 net109
*264 net11
*265 net110
*266 net111
*267 net112
*268 net113
*269 net114
*270 net115
*271 net116
*272 net117
*273 net118
*274 net119
*275 net12
*276 net120
*277 net121
*278 net122
*279 net123
*280 net124
*281 net125
*282 net126
*283 net127
*284 net128
*285 net129
*286 net13
*287 net130
*288 net131
*289 net132
*290 net133
*291 net134
*292 net135
*293 net136
*294 net137
*295 net138
*296 net139
*297 net14
*298 net140
*299 net141
*300 net142
*301 net143
*302 net144
*303 net145
*304 net146
*305 net147
*306 net148
*307 net149
*308 net15
*309 net150
*310 net151
*311 net152
*312 net153
*313 net154
*314 net155
*315 net156
*316 net157
*317 net158
*318 net159
*319 net16
*320 net160
*321 net161
*322 net162
*323 net163
*324 net164
*325 net165
*326 net166
*327 net167
*328 net168
*329 net169
*330 net17
*331 net170
*332 net171
*333 net172
*334 net173
*335 net174
*336 net175
*337 net176
*338 net177
*339 net178
*340 net179
*341 net18
*342 net180
*343 net181
*344 net182
*345 net183
*346 net184
*347 net185
*348 net186
*349 net187
*350 net188
*351 net189
*352 net19
*353 net190
*354 net191
*355 net192
*356 net193
*357 net194
*358 net195
*359 net196
*360 net197
*361 net198
*362 net199
*363 net2
*364 net20
*365 net200
*366 net201
*367 net202
*368 net203
*369 net204
*370 net205
*371 net206
*372 net207
*373 net208
*374 net209
*375 net21
*376 net210
*377 net211
*378 net212
*379 net213
*380 net214
*381 net215
*382 net216
*383 net217
*384 net218
*385 net219
*386 net22
*387 net220
*388 net221
*389 net222
*390 net223
*391 net224
*392 net225
*393 net226
*394 net227
*395 net228
*396 net229
*397 net23
*398 net230
*399 net231
*400 net232
*401 net233
*402 net234
*403 net235
*404 net236
*405 net237
*406 net238
*407 net239
*408 net24
*409 net240
*410 net241
*411 net242
*412 net243
*413 net244
*414 net245
*415 net246
*416 net247
*417 net248
*418 net249
*419 net25
*420 net250
*421 net251
*422 net252
*423 net253
*424 net254
*425 net255
*426 net256
*427 net257
*428 net258
*429 net259
*430 net26
*431 net260
*432 net261
*433 net262
*434 net263
*435 net264
*436 net265
*437 net266
*438 net267
*439 net268
*440 net269
*441 net27
*442 net270
*443 net271
*444 net272
*445 net273
*446 net274
*447 net275
*448 net276
*449 net277
*450 net278
*451 net279
*452 net28
*453 net280
*454 net281
*455 net282
*456 net283
*457 net284
*458 net285
*459 net286
*460 net287
*461 net288
*462 net289
*463 net29
*464 net290
*465 net291
*466 net292
*467 net293
*468 net294
*469 net295
*470 net296
*471 net297
*472 net298
*473 net299
*474 net3
*475 net30
*476 net300
*477 net301
*478 net302
*479 net303
*480 net304
*481 net305
*482 net306
*483 net307
*484 net308
*485 net309
*486 net31
*487 net310
*488 net311
*489 net312
*490 net313
*491 net314
*492 net315
*493 net316
*494 net317
*495 net318
*496 net319
*497 net32
*498 net320
*499 net321
*500 net322
*501 net323
*502 net324
*503 net325
*504 net326
*505 net327
*506 net328
*507 net329
*508 net33
*509 net330
*510 net331
*511 net332
*512 net333
*513 net334
*514 net335
*515 net336
*516 net337
*517 net338
*518 net339
*519 net34
*520 net340
*521 net341
*522 net342
*523 net343
*524 net344
*525 net345
*526 net346
*527 net347
*528 net348
*529 net349
*530 net35
*531 net350
*532 net351
*533 net352
*534 net353
*535 net354
*536 net355
*537 net356
*538 net357
*539 net358
*540 net359
*541 net36
*542 net360
*543 net361
*544 net362
*545 net363
*546 net364
*547 net365
*548 net366
*549 net367
*550 net368
*551 net369
*552 net37
*553 net370
*554 net371
*555 net372
*556 net373
*557 net374
*558 net375
*559 net376
*560 net377
*561 net378
*562 net379
*563 net38
*564 net380
*565 net381
*566 net382
*567 net383
*568 net384
*569 net385
*570 net386
*571 net387
*572 net388
*573 net389
*574 net39
*575 net390
*576 net391
*577 net392
*578 net393
*579 net394
*580 net395
*581 net396
*582 net397
*583 net398
*584 net399
*585 net4
*586 net40
*587 net400
*588 net401
*589 net402
*590 net403
*591 net404
*592 net405
*593 net406
*594 net407
*595 net408
*596 net409
*597 net41
*598 net410
*599 net411
*600 net412
*601 net413
*602 net414
*603 net415
*604 net416
*605 net417
*606 net418
*607 net419
*608 net42
*609 net420
*610 net421
*611 net422
*612 net423
*613 net424
*614 net425
*615 net426
*616 net427
*617 net428
*618 net429
*619 net43
*620 net430
*621 net431
*622 net432
*623 net433
*624 net434
*625 net435
*626 net436
*627 net437
*628 net438
*629 net439
*630 net44
*631 net440
*632 net441
*633 net442
*634 net443
*635 net444
*636 net445
*637 net446
*638 net447
*639 net448
*640 net449
*641 net45
*642 net450
*643 net451
*644 net452
*645 net453
*646 net454
*647 net455
*648 net456
*649 net457
*650 net458
*651 net459
*652 net46
*653 net460
*654 net461
*655 net462
*656 net463
*657 net464
*658 net465
*659 net466
*660 net467
*661 net468
*662 net469
*663 net47
*664 net470
*665 net471
*666 net472
*667 net473
*668 net474
*669 net475
*670 net476
*671 net477
*672 net478
*673 net479
*674 net48
*675 net480
*676 net481
*677 net482
*678 net483
*679 net484
*680 net485
*681 net486
*682 net487
*683 net488
*684 net489
*685 net49
*686 net490
*687 net491
*688 net492
*689 net493
*690 net494
*691 net495
*692 net496
*693 net497
*694 net498
*695 net499
*696 net5
*697 net50
*698 net500
*699 net501
*700 net502
*701 net503
*702 net504
*703 net505
*704 net506
*705 net507
*706 net508
*707 net509
*708 net51
*709 net510
*710 net511
*711 net512
*712 net513
*713 net514
*714 net515
*715 net516
*716 net517
*717 net518
*718 net519
*719 net52
*720 net520
*721 net521
*722 net522
*723 net523
*724 net524
*725 net525
*726 net526
*727 net527
*728 net528
*729 net529
*730 net53
*731 net530
*732 net531
*733 net532
*734 net533
*735 net534
*736 net535
*737 net536
*738 net537
*739 net538
*740 net539
*741 net54
*742 net540
*743 net541
*744 net542
*745 net543
*746 net544
*747 net545
*748 net546
*749 net547
*750 net548
*751 net549
*752 net55
*753 net550
*754 net551
*755 net552
*756 net553
*757 net554
*758 net555
*759 net556
*760 net557
*761 net558
*762 net559
*763 net56
*764 net560
*765 net561
*766 net562
*767 net563
*768 net564
*769 net565
*770 net566
*771 net567
*772 net568
*773 net569
*774 net57
*775 net570
*776 net571
*777 net572
*778 net573
*779 net574
*780 net575
*781 net576
*782 net577
*783 net578
*784 net579
*785 net58
*786 net580
*787 net581
*788 net582
*789 net583
*790 net584
*791 net585
*792 net586
*793 net587
*794 net588
*795 net589
*796 net59
*797 net590
*798 net591
*799 net592
*800 net593
*801 net594
*802 net595
*803 net596
*804 net597
*805 net598
*806 net599
*807 net6
*808 net60
*809 net600
*810 net601
*811 net602
*812 net603
*813 net604
*814 net605
*815 net606
*816 net607
*817 net608
*818 net609
*819 net61
*820 net610
*821 net611
*822 net612
*823 net613
*824 net614
*825 net615
*826 net616
*827 net617
*828 net618
*829 net619
*830 net62
*831 net620
*832 net621
*833 net622
*834 net623
*835 net624
*836 net625
*837 net626
*838 net627
*839 net628
*840 net629
*841 net63
*842 net630
*843 net631
*844 net632
*845 net633
*846 net634
*847 net635
*848 net636
*849 net637
*850 net638
*851 net639
*852 net64
*853 net640
*854 net641
*855 net642
*856 net643
*857 net644
*858 net645
*859 net646
*860 net647
*861 net648
*862 net649
*863 net65
*864 net650
*865 net651
*866 net652
*867 net653
*868 net654
*869 net655
*870 net656
*871 net657
*872 net658
*873 net659
*874 net66
*875 net660
*876 net661
*877 net662
*878 net663
*879 net664
*880 net665
*881 net666
*882 net667
*883 net668
*884 net669
*885 net67
*886 net670
*887 net671
*888 net672
*889 net673
*890 net674
*891 net675
*892 net676
*893 net677
*894 net678
*895 net679
*896 net68
*897 net680
*898 net681
*899 net682
*900 net683
*901 net684
*902 net685
*903 net686
*904 net687
*905 net688
*906 net689
*907 net69
*908 net690
*909 net691
*910 net692
*911 net693
*912 net694
*913 net695
*914 net696
*915 net697
*916 net698
*917 net699
*918 net7
*919 net70
*920 net700
*921 net701
*922 net702
*923 net703
*924 net704
*925 net705
*926 net706
*927 net707
*928 net708
*929 net709
*930 net71
*931 net710
*932 net711
*933 net712
*934 net713
*935 net714
*936 net715
*937 net716
*938 net717
*939 net718
*940 net719
*941 net72
*942 net720
*943 net721
*944 net722
*945 net723
*946 net724
*947 net725
*948 net726
*949 net727
*950 net728
*951 net729
*952 net73
*953 net730
*954 net731
*955 net732
*956 net733
*957 net734
*958 net735
*959 net736
*960 net737
*961 net738
*962 net739
*963 net74
*964 net740
*965 net741
*966 net742
*967 net743
*968 net744
*969 net745
*970 net746
*971 net747
*972 net748
*973 net749
*974 net75
*975 net750
*976 net751
*977 net752
*978 net753
*979 net754
*980 net755
*981 net756
*982 net757
*983 net758
*984 net759
*985 net76
*986 net760
*987 net761
*988 net762
*989 net763
*990 net764
*991 net765
*992 net766
*993 net767
*994 net768
*995 net769
*996 net77
*997 net770
*998 net771
*999 net772
*1000 net773
*1001 net774
*1002 net775
*1003 net776
*1004 net777
*1005 net778
*1006 net779
*1007 net78
*1008 net780
*1009 net781
*1010 net782
*1011 net783
*1012 net784
*1013 net785
*1014 net786
*1015 net787
*1016 net788
*1017 net789
*1018 net79
*1019 net790
*1020 net791
*1021 net792
*1022 net793
*1023 net794
*1024 net795
*1025 net796
*1026 net797
*1027 net798
*1028 net799
*1029 net8
*1030 net80
*1031 net800
*1032 net801
*1033 net802
*1034 net803
*1035 net804
*1036 net805
*1037 net806
*1038 net807
*1039 net808
*1040 net809
*1041 net81
*1042 net810
*1043 net811
*1044 net812
*1045 net813
*1046 net814
*1047 net815
*1048 net816
*1049 net817
*1050 net818
*1051 net819
*1052 net82
*1053 net820
*1054 net821
*1055 net822
*1056 net823
*1057 net824
*1058 net825
*1059 net826
*1060 net827
*1061 net828
*1062 net829
*1063 net83
*1064 net830
*1065 net831
*1066 net832
*1067 net833
*1068 net834
*1069 net835
*1070 net836
*1071 net837
*1072 net838
*1073 net839
*1074 net84
*1075 net840
*1076 net841
*1077 net842
*1078 net843
*1079 net844
*1080 net845
*1081 net846
*1082 net847
*1083 net848
*1084 net849
*1085 net85
*1086 net850
*1087 net851
*1088 net852
*1089 net853
*1090 net854
*1091 net855
*1092 net856
*1093 net857
*1094 net858
*1095 net859
*1096 net86
*1097 net860
*1098 net861
*1099 net862
*1100 net863
*1101 net864
*1102 net865
*1103 net866
*1104 net867
*1105 net868
*1106 net869
*1107 net87
*1108 net870
*1109 net871
*1110 net872
*1111 net873
*1112 net874
*1113 net875
*1114 net876
*1115 net877
*1116 net878
*1117 net879
*1118 net88
*1119 net880
*1120 net881
*1121 net882
*1122 net883
*1123 net885
*1124 net886
*1125 net887
*1126 net888
*1127 net889
*1128 net89
*1129 net890
*1130 net891
*1131 net892
*1132 net893
*1133 net894
*1134 net895
*1135 net896
*1136 net897
*1137 net898
*1138 net899
*1139 net9
*1140 net90
*1141 net900
*1142 net901
*1143 net902
*1144 net903
*1145 net904
*1146 net905
*1147 net906
*1148 net907
*1149 net908
*1150 net909
*1151 net91
*1152 net910
*1153 net911
*1154 net912
*1155 net913
*1156 net914
*1157 net915
*1158 net916
*1159 net917
*1160 net918
*1161 net919
*1162 net92
*1163 net920
*1164 net921
*1165 net922
*1166 net923
*1167 net924
*1168 net925
*1169 net926
*1170 net927
*1171 net928
*1172 net929
*1173 net93
*1174 net931
*1175 net932
*1176 net933
*1177 net934
*1178 net935
*1179 net936
*1180 net937
*1181 net938
*1182 net939
*1183 net94
*1184 net940
*1185 net941
*1186 net942
*1187 net943
*1188 net944
*1189 net945
*1190 net946
*1191 net947
*1192 net948
*1193 net949
*1194 net95
*1195 net950
*1196 net951
*1197 net952
*1198 net953
*1199 net954
*1200 net955
*1201 net956
*1202 net957
*1203 net958
*1204 net959
*1205 net96
*1206 net961
*1207 net962
*1208 net963
*1209 net964
*1210 net965
*1211 net966
*1212 net967
*1213 net968
*1214 net969
*1215 net97
*1216 net970
*1217 net971
*1218 net972
*1219 net973
*1220 net974
*1221 net975
*1222 net976
*1223 net977
*1224 net978
*1225 net979
*1226 net98
*1227 net980
*1228 net981
*1229 net99
*1230 ANTENNA_1
*1231 ANTENNA_2
*1232 ANTENNA_c156_X
*1233 ANTENNA_c162_A3
*1234 ANTENNA_c163_C
*1235 ANTENNA_c179_SCD
*1236 ANTENNA_c190_B
*1237 ANTENNA_c273_B
*1238 ANTENNA_c274_RESET_B
*1239 ANTENNA_c277_D
*1240 ANTENNA_c281_B
*1241 ANTENNA_c317_A
*1242 ANTENNA_c42_A
*1243 ANTENNA_c438_Q
*1244 ANTENNA_c439_SCD
*1245 ANTENNA_c527_B
*1246 ANTENNA_c536_X
*1247 ANTENNA_c537_B
*1248 ANTENNA_c538_SCD
*1249 ANTENNA_c541_B
*1250 ANTENNA_c542_SCE
*1251 ANTENNA_c546_A
*1252 ANTENNA_c558_S0
*1253 ANTENNA_c565_A
*1254 ANTENNA_c570_B
*1255 ANTENNA_c602_SET_B
*1256 ANTENNA_c603_SET_B
*1257 ANTENNA_c604_SCE
*1258 ANTENNA_c606_S1
*1259 ANTENNA_c607_SCE
*1260 ANTENNA_c608_SET_B
*1261 ANTENNA_c651_B
*1262 ANTENNA_c67_X
*1263 ANTENNA_c68_A
*1264 ANTENNA_c698_A
*1265 ANTENNA_c69_B
*1266 ANTENNA_c714_SCE
*1267 ANTENNA_c71_B
*1268 ANTENNA_c722_SCE
*1269 ANTENNA_c725_SCE
*1270 ANTENNA_c72_SCE
*1271 ANTENNA_c76_D_N
*1272 ANTENNA_c80_C
*1273 ANTENNA_c82_S0
*1274 ANTENNA_c83_S0
*1275 ANTENNA_clkbuf_0_clk_A
*1276 ANTENNA_clkbuf_0_clk_X
*1277 ANTENNA_clkbuf_2_0__f_clk_A
*1278 ANTENNA_clkbuf_2_0__f_clk_X
*1279 ANTENNA_clkbuf_2_1__f_clk_A
*1280 ANTENNA_clkbuf_2_1__f_clk_X
*1281 ANTENNA_clkbuf_2_2__f_clk_A
*1282 ANTENNA_clkbuf_2_2__f_clk_X
*1283 ANTENNA_clkbuf_2_3__f_clk_A
*1284 ANTENNA_clkbuf_2_3__f_clk_X
*1285 ANTENNA_clkbuf_leaf_0_clk_A
*1286 ANTENNA_clkbuf_leaf_10_clk_A
*1287 ANTENNA_clkbuf_leaf_11_clk_A
*1288 ANTENNA_clkbuf_leaf_12_clk_A
*1289 ANTENNA_clkbuf_leaf_13_clk_A
*1290 ANTENNA_clkbuf_leaf_14_clk_A
*1291 ANTENNA_clkbuf_leaf_15_clk_A
*1292 ANTENNA_clkbuf_leaf_16_clk_A
*1293 ANTENNA_clkbuf_leaf_17_clk_A
*1294 ANTENNA_clkbuf_leaf_18_clk_A
*1295 ANTENNA_clkbuf_leaf_19_clk_A
*1296 ANTENNA_clkbuf_leaf_1_clk_A
*1297 ANTENNA_clkbuf_leaf_20_clk_A
*1298 ANTENNA_clkbuf_leaf_21_clk_A
*1299 ANTENNA_clkbuf_leaf_22_clk_A
*1300 ANTENNA_clkbuf_leaf_23_clk_A
*1301 ANTENNA_clkbuf_leaf_24_clk_A
*1302 ANTENNA_clkbuf_leaf_25_clk_A
*1303 ANTENNA_clkbuf_leaf_26_clk_A
*1304 ANTENNA_clkbuf_leaf_27_clk_A
*1305 ANTENNA_clkbuf_leaf_28_clk_A
*1306 ANTENNA_clkbuf_leaf_29_clk_A
*1307 ANTENNA_clkbuf_leaf_2_clk_A
*1308 ANTENNA_clkbuf_leaf_30_clk_A
*1309 ANTENNA_clkbuf_leaf_31_clk_A
*1310 ANTENNA_clkbuf_leaf_32_clk_A
*1311 ANTENNA_clkbuf_leaf_33_clk_A
*1312 ANTENNA_clkbuf_leaf_34_clk_A
*1313 ANTENNA_clkbuf_leaf_35_clk_A
*1314 ANTENNA_clkbuf_leaf_36_clk_A
*1315 ANTENNA_clkbuf_leaf_37_clk_A
*1316 ANTENNA_clkbuf_leaf_3_clk_A
*1317 ANTENNA_clkbuf_leaf_4_clk_A
*1318 ANTENNA_clkbuf_leaf_5_clk_A
*1319 ANTENNA_clkbuf_leaf_6_clk_A
*1320 ANTENNA_clkbuf_leaf_7_clk_A
*1321 ANTENNA_clkbuf_leaf_8_clk_A
*1322 ANTENNA_clkbuf_leaf_9_clk_A
*1323 ANTENNA_fanout45_X
*1324 ANTENNA_input10_A
*1325 ANTENNA_input11_A
*1326 ANTENNA_input12_A
*1327 ANTENNA_input13_A
*1328 ANTENNA_input14_A
*1329 ANTENNA_input15_A
*1330 ANTENNA_input16_A
*1331 ANTENNA_input17_A
*1332 ANTENNA_input18_A
*1333 ANTENNA_input19_A
*1334 ANTENNA_input1_A
*1335 ANTENNA_input20_A
*1336 ANTENNA_input21_A
*1337 ANTENNA_input22_A
*1338 ANTENNA_input23_A
*1339 ANTENNA_input24_A
*1340 ANTENNA_input2_A
*1341 ANTENNA_input3_A
*1342 ANTENNA_input4_A
*1343 ANTENNA_input5_A
*1344 ANTENNA_input6_A
*1345 ANTENNA_input7_A
*1346 ANTENNA_input8_A
*1347 ANTENNA_input9_A
*1348 ANTENNA_merge751_SCD
*1349 ANTENNA_output26_A
*1350 FILLER_0_0_109
*1351 FILLER_0_0_113
*1352 FILLER_0_0_125
*1353 FILLER_0_0_137
*1354 FILLER_0_0_141
*1355 FILLER_0_0_15
*1356 FILLER_0_0_153
*1357 FILLER_0_0_165
*1358 FILLER_0_0_169
*1359 FILLER_0_0_181
*1360 FILLER_0_0_193
*1361 FILLER_0_0_197
*1362 FILLER_0_0_209
*1363 FILLER_0_0_221
*1364 FILLER_0_0_225
*1365 FILLER_0_0_237
*1366 FILLER_0_0_249
*1367 FILLER_0_0_253
*1368 FILLER_0_0_265
*1369 FILLER_0_0_27
*1370 FILLER_0_0_277
*1371 FILLER_0_0_281
*1372 FILLER_0_0_29
*1373 FILLER_0_0_293
*1374 FILLER_0_0_3
*1375 FILLER_0_0_305
*1376 FILLER_0_0_309
*1377 FILLER_0_0_317
*1378 FILLER_0_0_322
*1379 FILLER_0_0_334
*1380 FILLER_0_0_337
*1381 FILLER_0_0_349
*1382 FILLER_0_0_361
*1383 FILLER_0_0_365
*1384 FILLER_0_0_377
*1385 FILLER_0_0_389
*1386 FILLER_0_0_393
*1387 FILLER_0_0_405
*1388 FILLER_0_0_41
*1389 FILLER_0_0_417
*1390 FILLER_0_0_421
*1391 FILLER_0_0_433
*1392 FILLER_0_0_445
*1393 FILLER_0_0_449
*1394 FILLER_0_0_461
*1395 FILLER_0_0_473
*1396 FILLER_0_0_477
*1397 FILLER_0_0_489
*1398 FILLER_0_0_501
*1399 FILLER_0_0_505
*1400 FILLER_0_0_517
*1401 FILLER_0_0_529
*1402 FILLER_0_0_53
*1403 FILLER_0_0_533
*1404 FILLER_0_0_545
*1405 FILLER_0_0_557
*1406 FILLER_0_0_561
*1407 FILLER_0_0_57
*1408 FILLER_0_0_573
*1409 FILLER_0_0_585
*1410 FILLER_0_0_589
*1411 FILLER_0_0_601
*1412 FILLER_0_0_613
*1413 FILLER_0_0_617
*1414 FILLER_0_0_69
*1415 FILLER_0_0_81
*1416 FILLER_0_0_85
*1417 FILLER_0_0_97
*1418 FILLER_0_100_109
*1419 FILLER_0_100_121
*1420 FILLER_0_100_133
*1421 FILLER_0_100_139
*1422 FILLER_0_100_141
*1423 FILLER_0_100_15
*1424 FILLER_0_100_153
*1425 FILLER_0_100_165
*1426 FILLER_0_100_177
*1427 FILLER_0_100_189
*1428 FILLER_0_100_195
*1429 FILLER_0_100_197
*1430 FILLER_0_100_209
*1431 FILLER_0_100_221
*1432 FILLER_0_100_233
*1433 FILLER_0_100_245
*1434 FILLER_0_100_251
*1435 FILLER_0_100_253
*1436 FILLER_0_100_265
*1437 FILLER_0_100_27
*1438 FILLER_0_100_277
*1439 FILLER_0_100_289
*1440 FILLER_0_100_29
*1441 FILLER_0_100_3
*1442 FILLER_0_100_301
*1443 FILLER_0_100_307
*1444 FILLER_0_100_309
*1445 FILLER_0_100_321
*1446 FILLER_0_100_333
*1447 FILLER_0_100_345
*1448 FILLER_0_100_357
*1449 FILLER_0_100_363
*1450 FILLER_0_100_365
*1451 FILLER_0_100_377
*1452 FILLER_0_100_389
*1453 FILLER_0_100_401
*1454 FILLER_0_100_41
*1455 FILLER_0_100_413
*1456 FILLER_0_100_419
*1457 FILLER_0_100_421
*1458 FILLER_0_100_433
*1459 FILLER_0_100_445
*1460 FILLER_0_100_457
*1461 FILLER_0_100_469
*1462 FILLER_0_100_475
*1463 FILLER_0_100_477
*1464 FILLER_0_100_489
*1465 FILLER_0_100_501
*1466 FILLER_0_100_513
*1467 FILLER_0_100_525
*1468 FILLER_0_100_53
*1469 FILLER_0_100_531
*1470 FILLER_0_100_533
*1471 FILLER_0_100_545
*1472 FILLER_0_100_557
*1473 FILLER_0_100_569
*1474 FILLER_0_100_581
*1475 FILLER_0_100_587
*1476 FILLER_0_100_589
*1477 FILLER_0_100_601
*1478 FILLER_0_100_613
*1479 FILLER_0_100_65
*1480 FILLER_0_100_77
*1481 FILLER_0_100_83
*1482 FILLER_0_100_85
*1483 FILLER_0_100_97
*1484 FILLER_0_101_109
*1485 FILLER_0_101_113
*1486 FILLER_0_101_125
*1487 FILLER_0_101_137
*1488 FILLER_0_101_141
*1489 FILLER_0_101_15
*1490 FILLER_0_101_153
*1491 FILLER_0_101_165
*1492 FILLER_0_101_169
*1493 FILLER_0_101_181
*1494 FILLER_0_101_193
*1495 FILLER_0_101_197
*1496 FILLER_0_101_209
*1497 FILLER_0_101_221
*1498 FILLER_0_101_225
*1499 FILLER_0_101_237
*1500 FILLER_0_101_249
*1501 FILLER_0_101_253
*1502 FILLER_0_101_265
*1503 FILLER_0_101_27
*1504 FILLER_0_101_277
*1505 FILLER_0_101_281
*1506 FILLER_0_101_29
*1507 FILLER_0_101_293
*1508 FILLER_0_101_3
*1509 FILLER_0_101_305
*1510 FILLER_0_101_309
*1511 FILLER_0_101_321
*1512 FILLER_0_101_333
*1513 FILLER_0_101_337
*1514 FILLER_0_101_349
*1515 FILLER_0_101_361
*1516 FILLER_0_101_365
*1517 FILLER_0_101_377
*1518 FILLER_0_101_389
*1519 FILLER_0_101_393
*1520 FILLER_0_101_405
*1521 FILLER_0_101_41
*1522 FILLER_0_101_417
*1523 FILLER_0_101_421
*1524 FILLER_0_101_433
*1525 FILLER_0_101_445
*1526 FILLER_0_101_449
*1527 FILLER_0_101_461
*1528 FILLER_0_101_473
*1529 FILLER_0_101_477
*1530 FILLER_0_101_489
*1531 FILLER_0_101_501
*1532 FILLER_0_101_505
*1533 FILLER_0_101_517
*1534 FILLER_0_101_529
*1535 FILLER_0_101_53
*1536 FILLER_0_101_533
*1537 FILLER_0_101_545
*1538 FILLER_0_101_557
*1539 FILLER_0_101_561
*1540 FILLER_0_101_57
*1541 FILLER_0_101_573
*1542 FILLER_0_101_585
*1543 FILLER_0_101_589
*1544 FILLER_0_101_601
*1545 FILLER_0_101_613
*1546 FILLER_0_101_617
*1547 FILLER_0_101_69
*1548 FILLER_0_101_81
*1549 FILLER_0_101_85
*1550 FILLER_0_101_97
*1551 FILLER_0_10_109
*1552 FILLER_0_10_121
*1553 FILLER_0_10_133
*1554 FILLER_0_10_139
*1555 FILLER_0_10_141
*1556 FILLER_0_10_15
*1557 FILLER_0_10_153
*1558 FILLER_0_10_165
*1559 FILLER_0_10_177
*1560 FILLER_0_10_189
*1561 FILLER_0_10_195
*1562 FILLER_0_10_197
*1563 FILLER_0_10_209
*1564 FILLER_0_10_221
*1565 FILLER_0_10_233
*1566 FILLER_0_10_245
*1567 FILLER_0_10_251
*1568 FILLER_0_10_253
*1569 FILLER_0_10_268
*1570 FILLER_0_10_27
*1571 FILLER_0_10_280
*1572 FILLER_0_10_29
*1573 FILLER_0_10_292
*1574 FILLER_0_10_298
*1575 FILLER_0_10_3
*1576 FILLER_0_10_306
*1577 FILLER_0_10_314
*1578 FILLER_0_10_326
*1579 FILLER_0_10_338
*1580 FILLER_0_10_350
*1581 FILLER_0_10_362
*1582 FILLER_0_10_365
*1583 FILLER_0_10_377
*1584 FILLER_0_10_389
*1585 FILLER_0_10_401
*1586 FILLER_0_10_41
*1587 FILLER_0_10_413
*1588 FILLER_0_10_419
*1589 FILLER_0_10_421
*1590 FILLER_0_10_433
*1591 FILLER_0_10_445
*1592 FILLER_0_10_457
*1593 FILLER_0_10_469
*1594 FILLER_0_10_475
*1595 FILLER_0_10_477
*1596 FILLER_0_10_489
*1597 FILLER_0_10_501
*1598 FILLER_0_10_513
*1599 FILLER_0_10_525
*1600 FILLER_0_10_53
*1601 FILLER_0_10_531
*1602 FILLER_0_10_533
*1603 FILLER_0_10_545
*1604 FILLER_0_10_557
*1605 FILLER_0_10_569
*1606 FILLER_0_10_581
*1607 FILLER_0_10_587
*1608 FILLER_0_10_589
*1609 FILLER_0_10_601
*1610 FILLER_0_10_613
*1611 FILLER_0_10_65
*1612 FILLER_0_10_77
*1613 FILLER_0_10_83
*1614 FILLER_0_10_85
*1615 FILLER_0_10_97
*1616 FILLER_0_11_105
*1617 FILLER_0_11_111
*1618 FILLER_0_11_113
*1619 FILLER_0_11_125
*1620 FILLER_0_11_137
*1621 FILLER_0_11_149
*1622 FILLER_0_11_15
*1623 FILLER_0_11_161
*1624 FILLER_0_11_167
*1625 FILLER_0_11_169
*1626 FILLER_0_11_181
*1627 FILLER_0_11_193
*1628 FILLER_0_11_205
*1629 FILLER_0_11_217
*1630 FILLER_0_11_223
*1631 FILLER_0_11_225
*1632 FILLER_0_11_237
*1633 FILLER_0_11_27
*1634 FILLER_0_11_281
*1635 FILLER_0_11_285
*1636 FILLER_0_11_3
*1637 FILLER_0_11_327
*1638 FILLER_0_11_335
*1639 FILLER_0_11_351
*1640 FILLER_0_11_363
*1641 FILLER_0_11_375
*1642 FILLER_0_11_387
*1643 FILLER_0_11_39
*1644 FILLER_0_11_391
*1645 FILLER_0_11_393
*1646 FILLER_0_11_405
*1647 FILLER_0_11_417
*1648 FILLER_0_11_429
*1649 FILLER_0_11_441
*1650 FILLER_0_11_447
*1651 FILLER_0_11_449
*1652 FILLER_0_11_461
*1653 FILLER_0_11_473
*1654 FILLER_0_11_485
*1655 FILLER_0_11_497
*1656 FILLER_0_11_503
*1657 FILLER_0_11_505
*1658 FILLER_0_11_51
*1659 FILLER_0_11_517
*1660 FILLER_0_11_529
*1661 FILLER_0_11_541
*1662 FILLER_0_11_55
*1663 FILLER_0_11_553
*1664 FILLER_0_11_559
*1665 FILLER_0_11_561
*1666 FILLER_0_11_57
*1667 FILLER_0_11_573
*1668 FILLER_0_11_585
*1669 FILLER_0_11_597
*1670 FILLER_0_11_609
*1671 FILLER_0_11_615
*1672 FILLER_0_11_617
*1673 FILLER_0_11_69
*1674 FILLER_0_11_81
*1675 FILLER_0_11_93
*1676 FILLER_0_12_109
*1677 FILLER_0_12_121
*1678 FILLER_0_12_133
*1679 FILLER_0_12_139
*1680 FILLER_0_12_141
*1681 FILLER_0_12_15
*1682 FILLER_0_12_153
*1683 FILLER_0_12_165
*1684 FILLER_0_12_177
*1685 FILLER_0_12_189
*1686 FILLER_0_12_195
*1687 FILLER_0_12_197
*1688 FILLER_0_12_209
*1689 FILLER_0_12_221
*1690 FILLER_0_12_229
*1691 FILLER_0_12_263
*1692 FILLER_0_12_27
*1693 FILLER_0_12_286
*1694 FILLER_0_12_29
*1695 FILLER_0_12_3
*1696 FILLER_0_12_330
*1697 FILLER_0_12_365
*1698 FILLER_0_12_377
*1699 FILLER_0_12_389
*1700 FILLER_0_12_401
*1701 FILLER_0_12_41
*1702 FILLER_0_12_413
*1703 FILLER_0_12_419
*1704 FILLER_0_12_421
*1705 FILLER_0_12_433
*1706 FILLER_0_12_445
*1707 FILLER_0_12_457
*1708 FILLER_0_12_469
*1709 FILLER_0_12_475
*1710 FILLER_0_12_477
*1711 FILLER_0_12_489
*1712 FILLER_0_12_501
*1713 FILLER_0_12_513
*1714 FILLER_0_12_525
*1715 FILLER_0_12_53
*1716 FILLER_0_12_531
*1717 FILLER_0_12_533
*1718 FILLER_0_12_545
*1719 FILLER_0_12_557
*1720 FILLER_0_12_569
*1721 FILLER_0_12_581
*1722 FILLER_0_12_587
*1723 FILLER_0_12_589
*1724 FILLER_0_12_601
*1725 FILLER_0_12_613
*1726 FILLER_0_12_65
*1727 FILLER_0_12_77
*1728 FILLER_0_12_83
*1729 FILLER_0_12_85
*1730 FILLER_0_12_97
*1731 FILLER_0_13_105
*1732 FILLER_0_13_111
*1733 FILLER_0_13_113
*1734 FILLER_0_13_125
*1735 FILLER_0_13_137
*1736 FILLER_0_13_149
*1737 FILLER_0_13_15
*1738 FILLER_0_13_161
*1739 FILLER_0_13_167
*1740 FILLER_0_13_169
*1741 FILLER_0_13_175
*1742 FILLER_0_13_187
*1743 FILLER_0_13_199
*1744 FILLER_0_13_211
*1745 FILLER_0_13_223
*1746 FILLER_0_13_225
*1747 FILLER_0_13_237
*1748 FILLER_0_13_252
*1749 FILLER_0_13_27
*1750 FILLER_0_13_281
*1751 FILLER_0_13_3
*1752 FILLER_0_13_311
*1753 FILLER_0_13_323
*1754 FILLER_0_13_335
*1755 FILLER_0_13_345
*1756 FILLER_0_13_357
*1757 FILLER_0_13_365
*1758 FILLER_0_13_371
*1759 FILLER_0_13_383
*1760 FILLER_0_13_39
*1761 FILLER_0_13_391