*SPEF "ieee 1481-1999"
*DESIGN "netlist_0"
*DATE "23:09:04 Saturday August 17, 2024"
*VENDOR "The OpenROAD Project"
*PROGRAM "OpenROAD"
*VERSION "d423155d69de7f683a23f6916ead418a615ad4ad"
*DESIGN_FLOW "NAME_SCOPE LOCAL" "PIN_CAP NONE"
*DIVIDER /
*DELIMITER :
*BUS_DELIMITER []
*T_UNIT 1 NS
*C_UNIT 1 PF
*R_UNIT 1 OHM
*L_UNIT 1 HENRY

*NAME_MAP
*3 clk
*4 in0
*5 in1
*6 in10
*7 in11
*8 in12
*9 in13
*10 in14
*11 in15
*12 in16
*13 in17
*14 in18
*15 in19
*16 in2
*17 in20
*18 in21
*19 in22
*20 in23
*21 in24
*22 in3
*23 in4
*24 in5
*25 in6
*26 in7
*27 in8
*28 in9
*29 out0
*30 out1
*31 out10
*32 out11
*33 out12
*34 out13
*35 out14
*36 out15
*37 out16
*38 out17
*39 out18
*40 out19
*41 out2
*42 out20
*43 out21
*44 out22
*45 out23
*46 out24
*47 out3
*48 out4
*49 out5
*50 out6
*51 out7
*52 out8
*53 out9
*54 rst
*55 clknet_0_clk
*56 clknet_0_net135
*57 clknet_0_net138
*58 clknet_0_net157
*59 clknet_0_net164
*60 clknet_0_net178
*61 clknet_0_net196
*62 clknet_0_net255
*63 clknet_0_net260
*64 clknet_0_net301
*65 clknet_0_net302
*66 clknet_0_net307
*67 clknet_0_net310
*68 clknet_0_net321
*69 clknet_0_net33
*70 clknet_0_net413
*71 clknet_0_net414
*72 clknet_0_net415
*73 clknet_0_net419
*74 clknet_0_net421
*75 clknet_0_net439
*76 clknet_0_net440
*77 clknet_0_net441
*78 clknet_0_net445
*79 clknet_0_net448
*80 clknet_0_net514
*81 clknet_0_net515
*82 clknet_0_net516
*83 clknet_0_net523
*84 clknet_0_net525
*85 clknet_0_net528
*86 clknet_0_net532
*87 clknet_0_net574
*88 clknet_0_net585
*89 clknet_0_net652
*90 clknet_0_net655
*91 clknet_0_net657
*92 clknet_0_net660
*93 clknet_0_net666
*94 clknet_0_net686
*95 clknet_0_net745
*96 clknet_0_net759
*97 clknet_0_net794
*98 clknet_0_net898
*99 clknet_0_net901
*100 clknet_0_net922
*101 clknet_0_net923
*102 clknet_0_net924
*103 clknet_0_net943
*104 clknet_0_net944
*105 clknet_0_net945
*106 clknet_1_0__leaf_net135
*107 clknet_1_0__leaf_net138
*108 clknet_1_0__leaf_net157
*109 clknet_1_0__leaf_net164
*110 clknet_1_0__leaf_net178
*111 clknet_1_0__leaf_net196
*112 clknet_1_0__leaf_net255
*113 clknet_1_0__leaf_net260
*114 clknet_1_0__leaf_net301
*115 clknet_1_0__leaf_net302
*116 clknet_1_0__leaf_net307
*117 clknet_1_0__leaf_net310
*118 clknet_1_0__leaf_net321
*119 clknet_1_0__leaf_net33
*120 clknet_1_0__leaf_net413
*121 clknet_1_0__leaf_net414
*122 clknet_1_0__leaf_net415
*123 clknet_1_0__leaf_net419
*124 clknet_1_0__leaf_net421
*125 clknet_1_0__leaf_net439
*126 clknet_1_0__leaf_net440
*127 clknet_1_0__leaf_net441
*128 clknet_1_0__leaf_net445
*129 clknet_1_0__leaf_net448
*130 clknet_1_0__leaf_net514
*131 clknet_1_0__leaf_net515
*132 clknet_1_0__leaf_net516
*133 clknet_1_0__leaf_net523
*134 clknet_1_0__leaf_net525
*135 clknet_1_0__leaf_net528
*136 clknet_1_0__leaf_net532
*137 clknet_1_0__leaf_net574
*138 clknet_1_0__leaf_net585
*139 clknet_1_0__leaf_net652
*140 clknet_1_0__leaf_net655
*141 clknet_1_0__leaf_net657
*142 clknet_1_0__leaf_net660
*143 clknet_1_0__leaf_net666
*144 clknet_1_0__leaf_net686
*145 clknet_1_0__leaf_net745
*146 clknet_1_0__leaf_net759
*147 clknet_1_0__leaf_net794
*148 clknet_1_0__leaf_net898
*149 clknet_1_0__leaf_net901
*150 clknet_1_0__leaf_net922
*151 clknet_1_0__leaf_net923
*152 clknet_1_0__leaf_net924
*153 clknet_1_0__leaf_net943
*154 clknet_1_0__leaf_net944
*155 clknet_1_0__leaf_net945
*156 clknet_1_1__leaf_net135
*157 clknet_1_1__leaf_net138
*158 clknet_1_1__leaf_net157
*159 clknet_1_1__leaf_net164
*160 clknet_1_1__leaf_net178
*161 clknet_1_1__leaf_net196
*162 clknet_1_1__leaf_net255
*163 clknet_1_1__leaf_net260
*164 clknet_1_1__leaf_net301
*165 clknet_1_1__leaf_net302
*166 clknet_1_1__leaf_net307
*167 clknet_1_1__leaf_net310
*168 clknet_1_1__leaf_net321
*169 clknet_1_1__leaf_net33
*170 clknet_1_1__leaf_net413
*171 clknet_1_1__leaf_net414
*172 clknet_1_1__leaf_net415
*173 clknet_1_1__leaf_net419
*174 clknet_1_1__leaf_net421
*175 clknet_1_1__leaf_net439
*176 clknet_1_1__leaf_net440
*177 clknet_1_1__leaf_net441
*178 clknet_1_1__leaf_net445
*179 clknet_1_1__leaf_net448
*180 clknet_1_1__leaf_net514
*181 clknet_1_1__leaf_net515
*182 clknet_1_1__leaf_net516
*183 clknet_1_1__leaf_net523
*184 clknet_1_1__leaf_net525
*185 clknet_1_1__leaf_net528
*186 clknet_1_1__leaf_net532
*187 clknet_1_1__leaf_net574
*188 clknet_1_1__leaf_net585
*189 clknet_1_1__leaf_net652
*190 clknet_1_1__leaf_net655
*191 clknet_1_1__leaf_net657
*192 clknet_1_1__leaf_net660
*193 clknet_1_1__leaf_net666
*194 clknet_1_1__leaf_net686
*195 clknet_1_1__leaf_net745
*196 clknet_1_1__leaf_net759
*197 clknet_1_1__leaf_net794
*198 clknet_1_1__leaf_net898
*199 clknet_1_1__leaf_net901
*200 clknet_1_1__leaf_net922
*201 clknet_1_1__leaf_net923
*202 clknet_1_1__leaf_net924
*203 clknet_1_1__leaf_net943
*204 clknet_1_1__leaf_net944
*205 clknet_1_1__leaf_net945
*206 clknet_4_0_0_clk
*207 clknet_4_10_0_clk
*208 clknet_4_11_0_clk
*209 clknet_4_12_0_clk
*210 clknet_4_13_0_clk
*211 clknet_4_14_0_clk
*212 clknet_4_15_0_clk
*213 clknet_4_1_0_clk
*214 clknet_4_2_0_clk
*215 clknet_4_3_0_clk
*216 clknet_4_4_0_clk
*217 clknet_4_5_0_clk
*218 clknet_4_6_0_clk
*219 clknet_4_7_0_clk
*220 clknet_4_8_0_clk
*221 clknet_4_9_0_clk
*222 net0
*223 net1
*224 net10
*225 net100
*226 net1000
*227 net1001
*228 net1002
*229 net1003
*230 net1004
*231 net1005
*232 net1006
*233 net1007
*234 net1008
*235 net101
*236 net1017
*237 net1018
*238 net1019
*239 net102
*240 net1020
*241 net1021
*242 net1022
*243 net1023
*244 net1024
*245 net1025
*246 net1026
*247 net1027
*248 net1028
*249 net1029
*250 net103
*251 net1030
*252 net1031
*253 net1032
*254 net1033
*255 net1034
*256 net1035
*257 net1036
*258 net1037
*259 net1038
*260 net1039
*261 net104
*262 net1040
*263 net1041
*264 net1042
*265 net1043
*266 net1044
*267 net1045
*268 net1046
*269 net1047
*270 net1048
*271 net1049
*272 net105
*273 net1050
*274 net1051
*275 net1052
*276 net1053
*277 net1054
*278 net1055
*279 net1056
*280 net1057
*281 net1058
*282 net1059
*283 net106
*284 net1060
*285 net1061
*286 net1062
*287 net1063
*288 net1064
*289 net1065
*290 net1066
*291 net1067
*292 net1068
*293 net1069
*294 net107
*295 net1070
*296 net1071
*297 net1072
*298 net1073
*299 net1074
*300 net1075
*301 net1076
*302 net1077
*303 net1078
*304 net1079
*305 net108
*306 net1080
*307 net1081
*308 net1082
*309 net109
*310 net11
*311 net110
*312 net111
*313 net112
*314 net113
*315 net114
*316 net115
*317 net116
*318 net117
*319 net118
*320 net119
*321 net12
*322 net120
*323 net121
*324 net122
*325 net123
*326 net124
*327 net125
*328 net126
*329 net127
*330 net128
*331 net129
*332 net13
*333 net130
*334 net131
*335 net132
*336 net133
*337 net134
*338 net135
*339 net136
*340 net137
*341 net138
*342 net139
*343 net14
*344 net140
*345 net141
*346 net142
*347 net143
*348 net144
*349 net145
*350 net146
*351 net147
*352 net148
*353 net149
*354 net15
*355 net150
*356 net151
*357 net152
*358 net153
*359 net154
*360 net155
*361 net156
*362 net157
*363 net158
*364 net159
*365 net16
*366 net160
*367 net161
*368 net162
*369 net163
*370 net164
*371 net165
*372 net166
*373 net167
*374 net168
*375 net169
*376 net17
*377 net170
*378 net171
*379 net172
*380 net173
*381 net174
*382 net175
*383 net176
*384 net177
*385 net178
*386 net179
*387 net18
*388 net180
*389 net181
*390 net182
*391 net183
*392 net184
*393 net185
*394 net186
*395 net187
*396 net188
*397 net189
*398 net19
*399 net190
*400 net191
*401 net192
*402 net193
*403 net194
*404 net195
*405 net196
*406 net197
*407 net198
*408 net199
*409 net2
*410 net20
*411 net200
*412 net201
*413 net202
*414 net203
*415 net204
*416 net205
*417 net206
*418 net207
*419 net208
*420 net209
*421 net21
*422 net210
*423 net211
*424 net212
*425 net213
*426 net214
*427 net215
*428 net216
*429 net217
*430 net218
*431 net219
*432 net22
*433 net220
*434 net221
*435 net222
*436 net223
*437 net224
*438 net225
*439 net226
*440 net227
*441 net228
*442 net229
*443 net23
*444 net230
*445 net231
*446 net232
*447 net233
*448 net234
*449 net235
*450 net236
*451 net237
*452 net238
*453 net239
*454 net24
*455 net240
*456 net241
*457 net242
*458 net243
*459 net244
*460 net245
*461 net246
*462 net247
*463 net248
*464 net249
*465 net25
*466 net250
*467 net251
*468 net252
*469 net253
*470 net254
*471 net255
*472 net256
*473 net257
*474 net258
*475 net259
*476 net26
*477 net260
*478 net261
*479 net262
*480 net263
*481 net264
*482 net265
*483 net266
*484 net267
*485 net268
*486 net269
*487 net27
*488 net270
*489 net271
*490 net272
*491 net273
*492 net274
*493 net275
*494 net276
*495 net277
*496 net278
*497 net279
*498 net28
*499 net280
*500 net281
*501 net282
*502 net283
*503 net284
*504 net285
*505 net286
*506 net287
*507 net288
*508 net289
*509 net29
*510 net290
*511 net291
*512 net292
*513 net293
*514 net294
*515 net295
*516 net296
*517 net297
*518 net298
*519 net299
*520 net3
*521 net30
*522 net300
*523 net301
*524 net302
*525 net303
*526 net304
*527 net305
*528 net306
*529 net307
*530 net308
*531 net309
*532 net31
*533 net310
*534 net311
*535 net312
*536 net313
*537 net314
*538 net315
*539 net316
*540 net317
*541 net318
*542 net319
*543 net32
*544 net320
*545 net321
*546 net322
*547 net323
*548 net324
*549 net325
*550 net326
*551 net327
*552 net328
*553 net329
*554 net33
*555 net330
*556 net331
*557 net332
*558 net333
*559 net334
*560 net335
*561 net336
*562 net337
*563 net338
*564 net339
*565 net34
*566 net340
*567 net341
*568 net342
*569 net343
*570 net344
*571 net345
*572 net346
*573 net347
*574 net348
*575 net349
*576 net35
*577 net350
*578 net351
*579 net352
*580 net353
*581 net354
*582 net355
*583 net356
*584 net357
*585 net358
*586 net359
*587 net36
*588 net360
*589 net361
*590 net362
*591 net363
*592 net364
*593 net365
*594 net366
*595 net367
*596 net368
*597 net369
*598 net37
*599 net370
*600 net371
*601 net372
*602 net373
*603 net374
*604 net375
*605 net376
*606 net377
*607 net378
*608 net379
*609 net38
*610 net380
*611 net381
*612 net382
*613 net383
*614 net384
*615 net385
*616 net386
*617 net387
*618 net388
*619 net389
*620 net39
*621 net390
*622 net391
*623 net392
*624 net393
*625 net394
*626 net395
*627 net396
*628 net397
*629 net398
*630 net399
*631 net4
*632 net40
*633 net400
*634 net401
*635 net402
*636 net403
*637 net404
*638 net405
*639 net406
*640 net407
*641 net408
*642 net409
*643 net41
*644 net410
*645 net411
*646 net412
*647 net413
*648 net414
*649 net415
*650 net416
*651 net417
*652 net418
*653 net419
*654 net42
*655 net420
*656 net421
*657 net422
*658 net423
*659 net424
*660 net425
*661 net426
*662 net427
*663 net428
*664 net429
*665 net43
*666 net430
*667 net431
*668 net432
*669 net433
*670 net434
*671 net435
*672 net436
*673 net437
*674 net438
*675 net439
*676 net44
*677 net440
*678 net441
*679 net442
*680 net443
*681 net444
*682 net445
*683 net446
*684 net447
*685 net448
*686 net449
*687 net45
*688 net450
*689 net451
*690 net452
*691 net453
*692 net454
*693 net455
*694 net456
*695 net457
*696 net458
*697 net459
*698 net46
*699 net460
*700 net461
*701 net462
*702 net463
*703 net464
*704 net465
*705 net466
*706 net467
*707 net468
*708 net469
*709 net47
*710 net470
*711 net471
*712 net472
*713 net473
*714 net474
*715 net475
*716 net476
*717 net477
*718 net478
*719 net479
*720 net48
*721 net480
*722 net481
*723 net482
*724 net483
*725 net484
*726 net485
*727 net486
*728 net487
*729 net488
*730 net489
*731 net49
*732 net490
*733 net491
*734 net492
*735 net493
*736 net494
*737 net495
*738 net496
*739 net497
*740 net498
*741 net499
*742 net5
*743 net50
*744 net500
*745 net501
*746 net502
*747 net503
*748 net504
*749 net505
*750 net506
*751 net507
*752 net508
*753 net509
*754 net51
*755 net510
*756 net511
*757 net512
*758 net513
*759 net514
*760 net515
*761 net516
*762 net517
*763 net518
*764 net519
*765 net52
*766 net520
*767 net521
*768 net522
*769 net523
*770 net524
*771 net525
*772 net526
*773 net527
*774 net528
*775 net529
*776 net53
*777 net530
*778 net531
*779 net532
*780 net533
*781 net534
*782 net535
*783 net536
*784 net537
*785 net538
*786 net539
*787 net54
*788 net540
*789 net541
*790 net542
*791 net543
*792 net544
*793 net545
*794 net546
*795 net547
*796 net548
*797 net549
*798 net55
*799 net550
*800 net551
*801 net552
*802 net553
*803 net554
*804 net555
*805 net556
*806 net557
*807 net558
*808 net559
*809 net56
*810 net560
*811 net561
*812 net562
*813 net563
*814 net564
*815 net565
*816 net566
*817 net567
*818 net568
*819 net569
*820 net57
*821 net570
*822 net571
*823 net572
*824 net573
*825 net574
*826 net575
*827 net576
*828 net577
*829 net578
*830 net579
*831 net58
*832 net580
*833 net581
*834 net582
*835 net583
*836 net584
*837 net585
*838 net586
*839 net587
*840 net588
*841 net589
*842 net59
*843 net590
*844 net591
*845 net592
*846 net593
*847 net594
*848 net595
*849 net596
*850 net597
*851 net598
*852 net599
*853 net6
*854 net60
*855 net600
*856 net601
*857 net602
*858 net603
*859 net604
*860 net605
*861 net606
*862 net607
*863 net608
*864 net609
*865 net61
*866 net610
*867 net611
*868 net612
*869 net613
*870 net614
*871 net615
*872 net616
*873 net617
*874 net618
*875 net619
*876 net62
*877 net620
*878 net621
*879 net622
*880 net623
*881 net624
*882 net625
*883 net626
*884 net627
*885 net628
*886 net629
*887 net63
*888 net630
*889 net631
*890 net632
*891 net633
*892 net634
*893 net635
*894 net636
*895 net637
*896 net638
*897 net639
*898 net64
*899 net640
*900 net641
*901 net642
*902 net643
*903 net644
*904 net645
*905 net646
*906 net647
*907 net648
*908 net649
*909 net65
*910 net650
*911 net651
*912 net652
*913 net653
*914 net654
*915 net655
*916 net656
*917 net657
*918 net658
*919 net659
*920 net66
*921 net660
*922 net661
*923 net662
*924 net663
*925 net664
*926 net665
*927 net666
*928 net667
*929 net668
*930 net669
*931 net67
*932 net670
*933 net671
*934 net672
*935 net673
*936 net674
*937 net675
*938 net676
*939 net677
*940 net678
*941 net679
*942 net68
*943 net680
*944 net681
*945 net682
*946 net683
*947 net684
*948 net685
*949 net686
*950 net687
*951 net688
*952 net689
*953 net69
*954 net690
*955 net691
*956 net692
*957 net693
*958 net694
*959 net695
*960 net696
*961 net697
*962 net698
*963 net699
*964 net7
*965 net70
*966 net700
*967 net701
*968 net702
*969 net703
*970 net704
*971 net705
*972 net706
*973 net707
*974 net708
*975 net709
*976 net71
*977 net710
*978 net711
*979 net712
*980 net713
*981 net714
*982 net715
*983 net716
*984 net717
*985 net718
*986 net719
*987 net72
*988 net720
*989 net721
*990 net722
*991 net723
*992 net724
*993 net725
*994 net726
*995 net727
*996 net728
*997 net729
*998 net73
*999 net730
*1000 net731
*1001 net732
*1002 net733
*1003 net734
*1004 net735
*1005 net736
*1006 net737
*1007 net738
*1008 net739
*1009 net74
*1010 net740
*1011 net741
*1012 net742
*1013 net743
*1014 net744
*1015 net745
*1016 net746
*1017 net747
*1018 net748
*1019 net749
*1020 net75
*1021 net750
*1022 net751
*1023 net752
*1024 net753
*1025 net754
*1026 net755
*1027 net756
*1028 net757
*1029 net758
*1030 net759
*1031 net76
*1032 net760
*1033 net761
*1034 net762
*1035 net763
*1036 net764
*1037 net765
*1038 net766
*1039 net767
*1040 net768
*1041 net769
*1042 net77
*1043 net770
*1044 net771
*1045 net772
*1046 net773
*1047 net774
*1048 net775
*1049 net776
*1050 net777
*1051 net778
*1052 net779
*1053 net78
*1054 net780
*1055 net781
*1056 net782
*1057 net783
*1058 net784
*1059 net785
*1060 net786
*1061 net787
*1062 net788
*1063 net789
*1064 net79
*1065 net790
*1066 net791
*1067 net792
*1068 net793
*1069 net794
*1070 net795
*1071 net796
*1072 net797
*1073 net798
*1074 net799
*1075 net8
*1076 net80
*1077 net800
*1078 net801
*1079 net802
*1080 net803
*1081 net804
*1082 net805
*1083 net806
*1084 net807
*1085 net808
*1086 net809
*1087 net81
*1088 net810
*1089 net811
*1090 net812
*1091 net813
*1092 net814
*1093 net815
*1094 net816
*1095 net817
*1096 net818
*1097 net819
*1098 net82
*1099 net820
*1100 net821
*1101 net822
*1102 net823
*1103 net824
*1104 net825
*1105 net826
*1106 net827
*1107 net828
*1108 net829
*1109 net83
*1110 net830
*1111 net831
*1112 net832
*1113 net833
*1114 net834
*1115 net835
*1116 net836
*1117 net837
*1118 net838
*1119 net839
*1120 net84
*1121 net840
*1122 net841
*1123 net842
*1124 net843
*1125 net844
*1126 net845
*1127 net846
*1128 net847
*1129 net848
*1130 net849
*1131 net85
*1132 net850
*1133 net851
*1134 net852
*1135 net853
*1136 net854
*1137 net855
*1138 net856
*1139 net857
*1140 net858
*1141 net859
*1142 net86
*1143 net860
*1144 net861
*1145 net862
*1146 net863
*1147 net864
*1148 net865
*1149 net866
*1150 net867
*1151 net868
*1152 net869
*1153 net87
*1154 net870
*1155 net871
*1156 net872
*1157 net873
*1158 net874
*1159 net875
*1160 net876
*1161 net877
*1162 net878
*1163 net879
*1164 net88
*1165 net880
*1166 net881
*1167 net882
*1168 net883
*1169 net884
*1170 net885
*1171 net886
*1172 net887
*1173 net888
*1174 net889
*1175 net89
*1176 net890
*1177 net891
*1178 net892
*1179 net893
*1180 net894
*1181 net895
*1182 net896
*1183 net897
*1184 net898
*1185 net899
*1186 net9
*1187 net90
*1188 net900
*1189 net901
*1190 net902
*1191 net903
*1192 net904
*1193 net905
*1194 net906
*1195 net907
*1196 net908
*1197 net909
*1198 net91
*1199 net910
*1200 net911
*1201 net912
*1202 net913
*1203 net914
*1204 net915
*1205 net916
*1206 net917
*1207 net918
*1208 net919
*1209 net92
*1210 net920
*1211 net921
*1212 net922
*1213 net923
*1214 net924
*1215 net925
*1216 net926
*1217 net927
*1218 net928
*1219 net929
*1220 net93
*1221 net930
*1222 net931
*1223 net932
*1224 net933
*1225 net934
*1226 net935
*1227 net936
*1228 net937
*1229 net938
*1230 net939
*1231 net94
*1232 net940
*1233 net941
*1234 net942
*1235 net943
*1236 net944
*1237 net945
*1238 net946
*1239 net947
*1240 net948
*1241 net949
*1242 net95
*1243 net950
*1244 net951
*1245 net952
*1246 net953
*1247 net954
*1248 net955
*1249 net956
*1250 net957
*1251 net958
*1252 net959
*1253 net96
*1254 net960
*1255 net961
*1256 net962
*1257 net963
*1258 net964
*1259 net965
*1260 net966
*1261 net967
*1262 net968
*1263 net969
*1264 net97
*1265 net970
*1266 net971
*1267 net972
*1268 net973
*1269 net974
*1270 net975
*1271 net976
*1272 net977
*1273 net978
*1274 net979
*1275 net98
*1276 net980
*1277 net981
*1278 net982
*1279 net983
*1280 net984
*1281 net985
*1282 net986
*1283 net987
*1284 net988
*1285 net989
*1286 net99
*1287 net990
*1288 net991
*1289 net992
*1290 net993
*1291 net994
*1292 net995
*1293 net996
*1294 net997
*1295 net998
*1296 net999
*1297 ANTENNA_1
*1298 ANTENNA_c132_X
*1299 ANTENNA_c133_A
*1300 ANTENNA_c134_B
*1301 ANTENNA_c135_A
*1302 ANTENNA_c137_B
*1303 ANTENNA_c138_A
*1304 ANTENNA_c141_B
*1305 ANTENNA_c141_C
*1306 ANTENNA_c142_X
*1307 ANTENNA_c146_A3
*1308 ANTENNA_c146_S1
*1309 ANTENNA_c147_X
*1310 ANTENNA_c161_B
*1311 ANTENNA_c164_X
*1312 ANTENNA_c166_A
*1313 ANTENNA_c166_X
*1314 ANTENNA_c170_C
*1315 ANTENNA_c172_D1
*1316 ANTENNA_c175_D_N
*1317 ANTENNA_c181_A
*1318 ANTENNA_c183_B
*1319 ANTENNA_c197_X
*1320 ANTENNA_c204_B
*1321 ANTENNA_c218_CLK
*1322 ANTENNA_c224_X
*1323 ANTENNA_c229_CLK_N
*1324 ANTENNA_c229_SET_B
*1325 ANTENNA_c230_X
*1326 ANTENNA_c231_CLK
*1327 ANTENNA_c231_D
*1328 ANTENNA_c231_RESET_B
*1329 ANTENNA_c233_CLK
*1330 ANTENNA_c233_SCD
*1331 ANTENNA_c237_B
*1332 ANTENNA_c238_CLK
*1333 ANTENNA_c241_CLK
*1334 ANTENNA_c247_CLK
*1335 ANTENNA_c248_CLK
*1336 ANTENNA_c252_CLK_N
*1337 ANTENNA_c266_X
*1338 ANTENNA_c267_A
*1339 ANTENNA_c271_C
*1340 ANTENNA_c279_CLK_N
*1341 ANTENNA_c280_CLK_N
*1342 ANTENNA_c280_SCE
*1343 ANTENNA_c282_D1
*1344 ANTENNA_c288_B
*1345 ANTENNA_c289_C
*1346 ANTENNA_c297_X
*1347 ANTENNA_c299_B
*1348 ANTENNA_c301_CLK
*1349 ANTENNA_c303_CLK
*1350 ANTENNA_c303_SCE
*1351 ANTENNA_c307_X
*1352 ANTENNA_c308_A
*1353 ANTENNA_c312_X
*1354 ANTENNA_c314_A
*1355 ANTENNA_c321_B
*1356 ANTENNA_c325_CLK
*1357 ANTENNA_c325_Q
*1358 ANTENNA_c327_B
*1359 ANTENNA_c327_D_N
*1360 ANTENNA_c328_C_N
*1361 ANTENNA_c328_D_N
*1362 ANTENNA_c329_B
*1363 ANTENNA_c331_X
*1364 ANTENNA_c332_X
*1365 ANTENNA_c333_A
*1366 ANTENNA_c337_B
*1367 ANTENNA_c339_X
*1368 ANTENNA_c341_B
*1369 ANTENNA_c343_B
*1370 ANTENNA_c343_C
*1371 ANTENNA_c343_X
*1372 ANTENNA_c344_B
*1373 ANTENNA_c347_A
*1374 ANTENNA_c348_C
*1375 ANTENNA_c349_S0
*1376 ANTENNA_c349_S1
*1377 ANTENNA_c351_X
*1378 ANTENNA_c354_A
*1379 ANTENNA_c358_B
*1380 ANTENNA_c360_B
*1381 ANTENNA_c367_CLK
*1382 ANTENNA_c36_CLK_N
*1383 ANTENNA_c380_CLK_N
*1384 ANTENNA_c382_A
*1385 ANTENNA_c385_CLK_N
*1386 ANTENNA_c387_CLK
*1387 ANTENNA_c390_CLK
*1388 ANTENNA_c395_CLK
*1389 ANTENNA_c396_B
*1390 ANTENNA_c398_A
*1391 ANTENNA_c402_A
*1392 ANTENNA_c409_A
*1393 ANTENNA_c410_D1
*1394 ANTENNA_c42_S1
*1395 ANTENNA_c43_CLK_N
*1396 ANTENNA_c43_Q_N
*1397 ANTENNA_c43_SET_B
*1398 ANTENNA_c440_B
*1399 ANTENNA_c441_B
*1400 ANTENNA_c443_B
*1401 ANTENNA_c461_S1
*1402 ANTENNA_c462_A
*1403 ANTENNA_c477_X
*1404 ANTENNA_c479_A
*1405 ANTENNA_c479_B
*1406 ANTENNA_c47_X
*1407 ANTENNA_c480_B1
*1408 ANTENNA_c481_SCD
*1409 ANTENNA_c483_S0
*1410 ANTENNA_c505_CLK
*1411 ANTENNA_c524_CLK
*1412 ANTENNA_c52_B
*1413 ANTENNA_c534_B
*1414 ANTENNA_c540_CLK
*1415 ANTENNA_c543_D_N
*1416 ANTENNA_c546_C1
*1417 ANTENNA_c547_CLK
*1418 ANTENNA_c549_S0
*1419 ANTENNA_c562_C_N
*1420 ANTENNA_c564_CLK_N
*1421 ANTENNA_c571_D1
*1422 ANTENNA_c572_X
*1423 ANTENNA_c579_X
*1424 ANTENNA_c57_S0
*1425 ANTENNA_c586_B
*1426 ANTENNA_c58_CLK_N
*1427 ANTENNA_c592_D1
*1428 ANTENNA_c594_B
*1429 ANTENNA_c596_X
*1430 ANTENNA_c597_B
*1431 ANTENNA_c59_A3
*1432 ANTENNA_c602_A
*1433 ANTENNA_c608_RESET_B
*1434 ANTENNA_c615_SET_B
*1435 ANTENNA_c636_S1
*1436 ANTENNA_c660_A
*1437 ANTENNA_c661_B
*1438 ANTENNA_c670_CLK
*1439 ANTENNA_c673_X
*1440 ANTENNA_c674_C
*1441 ANTENNA_c674_X
*1442 ANTENNA_c676_A0
*1443 ANTENNA_c677_C_N
*1444 ANTENNA_c678_A2
*1445 ANTENNA_c679_A1
*1446 ANTENNA_c679_A3
*1447 ANTENNA_c680_CLK
*1448 ANTENNA_c680_SCD
*1449 ANTENNA_c682_B
*1450 ANTENNA_c683_CLK
*1451 ANTENNA_c683_D
*1452 ANTENNA_c683_Q
*1453 ANTENNA_c683_SCE
*1454 ANTENNA_c685_A
*1455 ANTENNA_c685_B
*1456 ANTENNA_c687_B
*1457 ANTENNA_c689_CLK
*1458 ANTENNA_c68_X
*1459 ANTENNA_c694_CLK
*1460 ANTENNA_c694_SCE
*1461 ANTENNA_c694_SET_B
*1462 ANTENNA_c700_A1
*1463 ANTENNA_c704_X
*1464 ANTENNA_c706_B
*1465 ANTENNA_c710_A
*1466 ANTENNA_c713_B
*1467 ANTENNA_c729_X
*1468 ANTENNA_c731_X
*1469 ANTENNA_c732_X
*1470 ANTENNA_c735_B
*1471 ANTENNA_c736_SCD
*1472 ANTENNA_c738_CLK_N
*1473 ANTENNA_c738_D
*1474 ANTENNA_c738_RESET_B
*1475 ANTENNA_c739_RESET_B
*1476 ANTENNA_c750_CLK
*1477 ANTENNA_c750_SET_B
*1478 ANTENNA_c751_CLK
*1479 ANTENNA_c754_CLK_N
*1480 ANTENNA_c754_D
*1481 ANTENNA_c79_CLK
*1482 ANTENNA_c79_D
*1483 ANTENNA_c81_CLK
*1484 ANTENNA_c88_A
*1485 ANTENNA_clkbuf_0_clk_A
*1486 ANTENNA_clkbuf_0_clk_X
*1487 ANTENNA_clkbuf_1_0__f_net321_X
*1488 ANTENNA_clkbuf_1_0__f_net652_X
*1489 ANTENNA_clkbuf_1_0__f_net923_X
*1490 ANTENNA_clkbuf_1_1__f_net923_X
*1491 ANTENNA_clkbuf_4_0_0_clk_A
*1492 ANTENNA_clkbuf_4_0_0_clk_X
*1493 ANTENNA_clkbuf_4_10_0_clk_A
*1494 ANTENNA_clkbuf_4_10_0_clk_X
*1495 ANTENNA_clkbuf_4_11_0_clk_A
*1496 ANTENNA_clkbuf_4_11_0_clk_X
*1497 ANTENNA_clkbuf_4_12_0_clk_A
*1498 ANTENNA_clkbuf_4_13_0_clk_A
*1499 ANTENNA_clkbuf_4_14_0_clk_A
*1500 ANTENNA_clkbuf_4_14_0_clk_X
*1501 ANTENNA_clkbuf_4_15_0_clk_A
*1502 ANTENNA_clkbuf_4_15_0_clk_X
*1503 ANTENNA_clkbuf_4_1_0_clk_A
*1504 ANTENNA_clkbuf_4_2_0_clk_A
*1505 ANTENNA_clkbuf_4_2_0_clk_X
*1506 ANTENNA_clkbuf_4_3_0_clk_A
*1507 ANTENNA_clkbuf_4_3_0_clk_X
*1508 ANTENNA_clkbuf_4_4_0_clk_A
*1509 ANTENNA_clkbuf_4_5_0_clk_A
*1510 ANTENNA_clkbuf_4_5_0_clk_X
*1511 ANTENNA_clkbuf_4_6_0_clk_A
*1512 ANTENNA_clkbuf_4_6_0_clk_X
*1513 ANTENNA_clkbuf_4_7_0_clk_A
*1514 ANTENNA_clkbuf_4_7_0_clk_X
*1515 ANTENNA_clkbuf_4_8_0_clk_A
*1516 ANTENNA_clkbuf_4_8_0_clk_X
*1517 ANTENNA_clkbuf_4_9_0_clk_A
*1518 ANTENNA_clkbuf_4_9_0_clk_X
*1519 ANTENNA_fanout38_X
*1520 ANTENNA_hold42_A
*1521 ANTENNA_hold61_A
*1522 ANTENNA_hold69_A
*1523 ANTENNA_hold87_A
*1524 ANTENNA_input10_A
*1525 ANTENNA_input11_A
*1526 ANTENNA_input11_X
*1527 ANTENNA_input12_A
*1528 ANTENNA_input13_A
*1529 ANTENNA_input14_A
*1530 ANTENNA_input15_A
*1531 ANTENNA_input16_A
*1532 ANTENNA_input17_A
*1533 ANTENNA_input18_A
*1534 ANTENNA_input18_X
*1535 ANTENNA_input19_A
*1536 ANTENNA_input1_A
*1537 ANTENNA_input20_A
*1538 ANTENNA_input21_A
*1539 ANTENNA_input22_A
*1540 ANTENNA_input23_A
*1541 ANTENNA_input23_X
*1542 ANTENNA_input24_A
*1543 ANTENNA_input25_A
*1544 ANTENNA_input2_A
*1545 ANTENNA_input2_X
*1546 ANTENNA_input3_A
*1547 ANTENNA_input4_A
*1548 ANTENNA_input5_A
*1549 ANTENNA_input6_A
*1550 ANTENNA_input7_A
*1551 ANTENNA_input8_A
*1552 ANTENNA_input9_A
*1553 ANTENNA_merge759_CLK
*1554 ANTENNA_merge759_RESET_B
*1555 ANTENNA_merge762_SCD
*1556 ANTENNA_merge763_CLK_N
*1557 ANTENNA_merge768_B
*1558 ANTENNA_merge769_CLK
*1559 ANTENNA_merge771_CLK
*1560 ANTENNA_merge772_CLK
*1561 ANTENNA_merge774_CLK
*1562 ANTENNA_merge776_CLK
*1563 ANTENNA_merge777_CLK
*1564 ANTENNA_merge781_CLK
*1565 ANTENNA_merge781_DE
*1566 ANTENNA_merge783_CLK
*1567 ANTENNA_merge784_A
*1568 ANTENNA_merge785_CLK
*1569 ANTENNA_merge785_SCE
*1570 ANTENNA_merge786_CLK
*1571 ANTENNA_merge788_CLK_N
*1572 ANTENNA_merge788_Q
*1573 ANTENNA_merge788_RESET_B
*1574 ANTENNA_merge788_SCE
*1575 ANTENNA_merge789_CLK
*1576 ANTENNA_merge789_RESET_B
*1577 ANTENNA_merge793_CLK
*1578 ANTENNA_merge794_CLK
*1579 ANTENNA_merge795_CLK
*1580 ANTENNA_merge797_CLK
*1581 ANTENNA_merge797_SCD
*1582 ANTENNA_merge798_CLK
*1583 ANTENNA_merge799_CLK
*1584 ANTENNA_merge800_D
*1585 ANTENNA_merge800_DE
*1586 ANTENNA_merge801_CLK
*1587 ANTENNA_merge803_CLK
*1588 ANTENNA_merge803_DE
*1589 ANTENNA_merge805_CLK
*1590 ANTENNA_merge805_RESET_B
*1591 ANTENNA_merge806_B1
*1592 ANTENNA_merge808_CLK
*1593 ANTENNA_merge808_SCE
*1594 ANTENNA_merge809_CLK_N
*1595 ANTENNA_merge810_CLK
*1596 ANTENNA_merge811_SCD
*1597 ANTENNA_merge813_CLK
*1598 ANTENNA_merge814_CLK
*1599 ANTENNA_merge816_CLK
*1600 ANTENNA_merge817_CLK_N
*1601 ANTENNA_merge818_CLK
*1602 ANTENNA_merge818_SET_B
*1603 ANTENNA_merge819_CLK
*1604 ANTENNA_merge820_CLK
*1605 ANTENNA_merge821_CLK_N
*1606 ANTENNA_merge822_CLK
*1607 ANTENNA_merge823_D_N
*1608 ANTENNA_merge824_CLK
*1609 ANTENNA_merge825_CLK
*1610 ANTENNA_merge826_CLK
*1611 ANTENNA_merge826_D
*1612 ANTENNA_merge826_RESET_B
*1613 ANTENNA_merge826_SCE
*1614 ANTENNA_merge826_SET_B
*1615 ANTENNA_merge827_CLK
*1616 ANTENNA_merge828_CLK
*1617 ANTENNA_merge829_CLK_N
*1618 ANTENNA_merge829_SCE
*1619 ANTENNA_merge830_CLK
*1620 ANTENNA_merge831_A2
*1621 ANTENNA_merge834_CLK_N
*1622 ANTENNA_merge834_SCE
*1623 ANTENNA_merge835_B
*1624 ANTENNA_merge836_CLK
*1625 ANTENNA_merge837_A3
*1626 ANTENNA_merge837_S0
*1627 ANTENNA_merge837_S1
*1628 ANTENNA_merge839_A1
*1629 ANTENNA_merge839_S1
*1630 ANTENNA_merge841_A0
*1631 ANTENNA_merge842_A1
*1632 ANTENNA_merge842_S1
*1633 ANTENNA_merge843_A0
*1634 ANTENNA_merge843_A1
*1635 ANTENNA_merge844_A0
*1636 ANTENNA_merge844_A3
*1637 ANTENNA_merge844_S1
*1638 ANTENNA_merge845_A1
*1639 ANTENNA_merge846_A1
*1640 ANTENNA_merge846_A3
*1641 ANTENNA_merge846_S0
*1642 ANTENNA_merge846_S1
*1643 ANTENNA_merge849_A1
*1644 ANTENNA_merge849_S0
*1645 ANTENNA_merge850_A0
*1646 ANTENNA_merge850_A2
*1647 ANTENNA_merge851_A0
*1648 ANTENNA_merge854_CLK_N
*1649 ANTENNA_merge855_S0
*1650 ANTENNA_merge856_A0
*1651 ANTENNA_merge856_A1
*1652 ANTENNA_merge856_S0
*1653 ANTENNA_merge857_A1
*1654 ANTENNA_merge857_A2
*1655 ANTENNA_merge858_A1
*1656 ANTENNA_merge858_A2
*1657 ANTENNA_merge863_CLK
*1658 ANTENNA_merge864_CLK_N
*1659 ANTENNA_merge865_CLK
*1660 ANTENNA_merge866_CLK
*1661 ANTENNA_merge868_CLK
*1662 ANTENNA_merge870_CLK
*1663 ANTENNA_merge873_CLK
*1664 ANTENNA_merge874_CLK
*1665 ANTENNA_merge875_GATE_N
*1666 ANTENNA_merge877_GATE
*1667 ANTENNA_merge878_GATE
*1668 ANTENNA_merge879_GATE_N
*1669 ANTENNA_merge880_GATE_N
*1670 ANTENNA_merge881_GATE_N
*1671 ANTENNA_merge882_GATE
*1672 ANTENNA_merge883_GATE
*1673 ANTENNA_merge884_GATE
*1674 ANTENNA_merge885_CLK
*1675 ANTENNA_merge886_CLK
*1676 ANTENNA_merge887_CLK
*1677 ANTENNA_merge890_CLK
*1678 ANTENNA_merge891_CLK
*1679 ANTENNA_merge893_CLK_N
*1680 ANTENNA_merge894_CLK
*1681 ANTENNA_merge894_Q
*1682 ANTENNA_merge896_CLK
*1683 ANTENNA_merge897_CLK
*1684 ANTENNA_merge898_CLK
*1685 ANTENNA_s900_CLK
*1686 ANTENNA_s901_CLK
*1687 ANTENNA_s902_CLK
*1688 ANTENNA_s903_CLK
*1689 ANTENNA_s904_CLK
*1690 ANTENNA_s906_CLK
*1691 ANTENNA_s907_CLK
*1692 ANTENNA_s908_GATE_N
*1693 ANTENNA_s909_GATE_N
*1694 ANTENNA_s910_GATE
*1695 ANTENNA_s911_GATE_N
*1696 ANTENNA_s912_GATE_N
*1697 ANTENNA_s912_Q
*1698 ANTENNA_s913_GATE_N
*1699 ANTENNA_s915_SLEEP_B
*1700 ANTENNA_s916_CLK
*1701 ANTENNA_s917_CLK
*1702 ANTENNA_s919_CLK
*1703 ANTENNA_s920_CLK
*1704 ANTENNA_s921_CLK
*1705 ANTENNA_s923_CLK
*1706 ANTENNA_s924_GATE_N
*1707 ANTENNA_s925_GATE_N
*1708 ANTENNA_s926_GATE
*1709 ANTENNA_s929_GATE_N
*1710 ANTENNA_s930_GATE
*1711 ANTENNA_s932_CLK
*1712 FILLER_0_0_109
*1713 FILLER_0_0_113
*1714 FILLER_0_0_125
*1715 FILLER_0_0_137
*1716 FILLER_0_0_141
*1717 FILLER_0_0_15
*1718 FILLER_0_0_153
*1719 FILLER_0_0_165
*1720 FILLER_0_0_169
*1721 FILLER_0_0_175
*1722 FILLER_0_0_181
*1723 FILLER_0_0_188
*1724 FILLER_0_0_195
*1725 FILLER_0_0_202
*1726 FILLER_0_0_209
*1727 FILLER_0_0_216
*1728 FILLER_0_0_223
*1729 FILLER_0_0_230
*1730 FILLER_0_0_237
*1731 FILLER_0_0_244
*1732 FILLER_0_0_251
*1733 FILLER_0_0_258
*1734 FILLER_0_0_265
*1735 FILLER_0_0_27
*1736 FILLER_0_0_272
*1737 FILLER_0_0_279
*1738 FILLER_0_0_281
*1739 FILLER_0_0_29
*1740 FILLER_0_0_293
*1741 FILLER_0_0_3
*1742 FILLER_0_0_305
*1743 FILLER_0_0_309
*1744 FILLER_0_0_321
*1745 FILLER_0_0_333
*1746 FILLER_0_0_337
*1747 FILLER_0_0_349
*1748 FILLER_0_0_361
*1749 FILLER_0_0_370
*1750 FILLER_0_0_382
*1751 FILLER_0_0_390
*1752 FILLER_0_0_393
*1753 FILLER_0_0_405
*1754 FILLER_0_0_41
*1755 FILLER_0_0_417
*1756 FILLER_0_0_421
*1757 FILLER_0_0_433
*1758 FILLER_0_0_445
*1759 FILLER_0_0_449
*1760 FILLER_0_0_461
*1761 FILLER_0_0_473
*1762 FILLER_0_0_477
*1763 FILLER_0_0_489
*1764 FILLER_0_0_501
*1765 FILLER_0_0_505
*1766 FILLER_0_0_517
*1767 FILLER_0_0_529
*1768 FILLER_0_0_53
*1769 FILLER_0_0_533
*1770 FILLER_0_0_545
*1771 FILLER_0_0_557
*1772 FILLER_0_0_561
*1773 FILLER_0_0_57
*1774 FILLER_0_0_573
*1775 FILLER_0_0_585
*1776 FILLER_0_0_589
*1777 FILLER_0_0_601
*1778 FILLER_0_0_613
*1779 FILLER_0_0_617
*1780 FILLER_0_0_69