*SPEF "ieee 1481-1999"
*DESIGN "netlist_0"
*DATE "21:12:54 Friday August 16, 2024"
*VENDOR "The OpenROAD Project"
*PROGRAM "OpenROAD"
*VERSION "d423155d69de7f683a23f6916ead418a615ad4ad"
*DESIGN_FLOW "NAME_SCOPE LOCAL" "PIN_CAP NONE"
*DIVIDER /
*DELIMITER :
*BUS_DELIMITER []
*T_UNIT 1 NS
*C_UNIT 1 PF
*R_UNIT 1 OHM
*L_UNIT 1 HENRY

*NAME_MAP
*3 clk
*4 in0
*5 in1
*6 in10
*7 in11
*8 in12
*9 in13
*10 in14
*11 in15
*12 in16
*13 in17
*14 in18
*15 in19
*16 in2
*17 in20
*18 in21
*19 in22
*20 in23
*21 in24
*22 in3
*23 in4
*24 in5
*25 in6
*26 in7
*27 in8
*28 in9
*29 out0
*30 out1
*31 out10
*32 out11
*33 out12
*34 out13
*35 out14
*36 out15
*37 out16
*38 out17
*39 out18
*40 out19
*41 out2
*42 out20
*43 out21
*44 out22
*45 out23
*46 out24
*47 out3
*48 out4
*49 out5
*50 out6
*51 out7
*52 out8
*53 out9
*54 rst
*55 clknet_0_clk
*56 clknet_0_net102
*57 clknet_0_net215
*58 clknet_0_net222
*59 clknet_0_net227
*60 clknet_0_net228
*61 clknet_0_net229
*62 clknet_0_net232
*63 clknet_0_net346
*64 clknet_0_net352
*65 clknet_0_net471
*66 clknet_0_net473
*67 clknet_0_net562
*68 clknet_0_net563
*69 clknet_0_net593
*70 clknet_0_net597
*71 clknet_0_net622
*72 clknet_0_net709
*73 clknet_0_net712
*74 clknet_0_net720
*75 clknet_0_net721
*76 clknet_0_net731
*77 clknet_0_net795
*78 clknet_0_net797
*79 clknet_0_net798
*80 clknet_0_net833
*81 clknet_0_net834
*82 clknet_0_net854
*83 clknet_0_net855
*84 clknet_0_net856
*85 clknet_0_net874
*86 clknet_0_net875
*87 clknet_0_net876
*88 clknet_0_net895
*89 clknet_0_net896
*90 clknet_0_net897
*91 clknet_0_net91
*92 clknet_0_net916
*93 clknet_0_net917
*94 clknet_0_net918
*95 clknet_0_net94
*96 clknet_0_net95
*97 clknet_0_net958
*98 clknet_0_net96
*99 clknet_0_net966
*100 clknet_0_net967
*101 clknet_0_net97
*102 clknet_0_net98
*103 clknet_1_0__leaf_net102
*104 clknet_1_0__leaf_net215
*105 clknet_1_0__leaf_net222
*106 clknet_1_0__leaf_net227
*107 clknet_1_0__leaf_net228
*108 clknet_1_0__leaf_net229
*109 clknet_1_0__leaf_net232
*110 clknet_1_0__leaf_net346
*111 clknet_1_0__leaf_net352
*112 clknet_1_0__leaf_net471
*113 clknet_1_0__leaf_net473
*114 clknet_1_0__leaf_net562
*115 clknet_1_0__leaf_net563
*116 clknet_1_0__leaf_net593
*117 clknet_1_0__leaf_net597
*118 clknet_1_0__leaf_net622
*119 clknet_1_0__leaf_net709
*120 clknet_1_0__leaf_net712
*121 clknet_1_0__leaf_net720
*122 clknet_1_0__leaf_net721
*123 clknet_1_0__leaf_net731
*124 clknet_1_0__leaf_net795
*125 clknet_1_0__leaf_net797
*126 clknet_1_0__leaf_net798
*127 clknet_1_0__leaf_net833
*128 clknet_1_0__leaf_net834
*129 clknet_1_0__leaf_net854
*130 clknet_1_0__leaf_net855
*131 clknet_1_0__leaf_net856
*132 clknet_1_0__leaf_net874
*133 clknet_1_0__leaf_net875
*134 clknet_1_0__leaf_net876
*135 clknet_1_0__leaf_net895
*136 clknet_1_0__leaf_net896
*137 clknet_1_0__leaf_net897
*138 clknet_1_0__leaf_net91
*139 clknet_1_0__leaf_net916
*140 clknet_1_0__leaf_net917
*141 clknet_1_0__leaf_net918
*142 clknet_1_0__leaf_net94
*143 clknet_1_0__leaf_net95
*144 clknet_1_0__leaf_net958
*145 clknet_1_0__leaf_net96
*146 clknet_1_0__leaf_net966
*147 clknet_1_0__leaf_net967
*148 clknet_1_0__leaf_net97
*149 clknet_1_0__leaf_net98
*150 clknet_1_1__leaf_net102
*151 clknet_1_1__leaf_net215
*152 clknet_1_1__leaf_net222
*153 clknet_1_1__leaf_net227
*154 clknet_1_1__leaf_net228
*155 clknet_1_1__leaf_net229
*156 clknet_1_1__leaf_net232
*157 clknet_1_1__leaf_net346
*158 clknet_1_1__leaf_net352
*159 clknet_1_1__leaf_net471
*160 clknet_1_1__leaf_net473
*161 clknet_1_1__leaf_net562
*162 clknet_1_1__leaf_net563
*163 clknet_1_1__leaf_net593
*164 clknet_1_1__leaf_net597
*165 clknet_1_1__leaf_net622
*166 clknet_1_1__leaf_net709
*167 clknet_1_1__leaf_net712
*168 clknet_1_1__leaf_net720
*169 clknet_1_1__leaf_net721
*170 clknet_1_1__leaf_net731
*171 clknet_1_1__leaf_net795
*172 clknet_1_1__leaf_net797
*173 clknet_1_1__leaf_net798
*174 clknet_1_1__leaf_net833
*175 clknet_1_1__leaf_net834
*176 clknet_1_1__leaf_net854
*177 clknet_1_1__leaf_net855
*178 clknet_1_1__leaf_net856
*179 clknet_1_1__leaf_net874
*180 clknet_1_1__leaf_net875
*181 clknet_1_1__leaf_net876
*182 clknet_1_1__leaf_net895
*183 clknet_1_1__leaf_net896
*184 clknet_1_1__leaf_net897
*185 clknet_1_1__leaf_net91
*186 clknet_1_1__leaf_net916
*187 clknet_1_1__leaf_net917
*188 clknet_1_1__leaf_net918
*189 clknet_1_1__leaf_net94
*190 clknet_1_1__leaf_net95
*191 clknet_1_1__leaf_net958
*192 clknet_1_1__leaf_net96
*193 clknet_1_1__leaf_net966
*194 clknet_1_1__leaf_net967
*195 clknet_1_1__leaf_net97
*196 clknet_1_1__leaf_net98
*197 clknet_4_0_0_clk
*198 clknet_4_10_0_clk
*199 clknet_4_11_0_clk
*200 clknet_4_12_0_clk
*201 clknet_4_13_0_clk
*202 clknet_4_14_0_clk
*203 clknet_4_15_0_clk
*204 clknet_4_1_0_clk
*205 clknet_4_2_0_clk
*206 clknet_4_3_0_clk
*207 clknet_4_4_0_clk
*208 clknet_4_5_0_clk
*209 clknet_4_6_0_clk
*210 clknet_4_7_0_clk
*211 clknet_4_8_0_clk
*212 clknet_4_9_0_clk
*213 net0
*214 net1
*215 net10
*216 net100
*217 net1000
*218 net1001
*219 net1002
*220 net1003
*221 net1004
*222 net1005
*223 net1006
*224 net1007
*225 net1008
*226 net1009
*227 net101
*228 net1010
*229 net1011
*230 net1012
*231 net1013
*232 net1014
*233 net1015
*234 net1016
*235 net1017
*236 net1018
*237 net1019
*238 net102
*239 net1020
*240 net1021
*241 net1022
*242 net1023
*243 net1024
*244 net1025
*245 net1026
*246 net1027
*247 net1028
*248 net1029
*249 net103
*250 net1030
*251 net1031
*252 net1032
*253 net1033
*254 net1034
*255 net1035
*256 net1036
*257 net1037
*258 net1038
*259 net1039
*260 net104
*261 net1040
*262 net1041
*263 net1042
*264 net1043
*265 net1044
*266 net1045
*267 net1046
*268 net1047
*269 net1048
*270 net1049
*271 net105
*272 net1050
*273 net1051
*274 net1052
*275 net1053
*276 net1054
*277 net1055
*278 net1056
*279 net1057
*280 net1058
*281 net1059
*282 net106
*283 net1060
*284 net1061
*285 net1062
*286 net1063
*287 net1064
*288 net1065
*289 net1066
*290 net1067
*291 net1068
*292 net1069
*293 net107
*294 net1070
*295 net1071
*296 net1072
*297 net1073
*298 net1074
*299 net1075
*300 net1076
*301 net1077
*302 net1078
*303 net1079
*304 net108
*305 net1080
*306 net1081
*307 net1082
*308 net1083
*309 net1084
*310 net1085
*311 net1086
*312 net1087
*313 net1088
*314 net1089
*315 net109
*316 net1090
*317 net1091
*318 net1092
*319 net1093
*320 net1094
*321 net1095
*322 net1096
*323 net1097
*324 net1098
*325 net1099
*326 net11
*327 net110
*328 net1100
*329 net1101
*330 net1102
*331 net1103
*332 net1104
*333 net1105
*334 net1106
*335 net1107
*336 net1108
*337 net1109
*338 net111
*339 net1110
*340 net1111
*341 net1112
*342 net1113
*343 net1114
*344 net1115
*345 net1116
*346 net1117
*347 net1118
*348 net1119
*349 net112
*350 net1120
*351 net1121
*352 net1122
*353 net1123
*354 net1124
*355 net1125
*356 net1126
*357 net1127
*358 net1128
*359 net1129
*360 net113
*361 net1130
*362 net1131
*363 net1132
*364 net1133
*365 net1134
*366 net1135
*367 net1136
*368 net1137
*369 net1138
*370 net1139
*371 net114
*372 net1140
*373 net1141
*374 net1142
*375 net1143
*376 net1144
*377 net1145
*378 net1146
*379 net1147
*380 net1148
*381 net1149
*382 net115
*383 net1150
*384 net1151
*385 net1152
*386 net1153
*387 net1154
*388 net1155
*389 net1156
*390 net1157
*391 net1158
*392 net1159
*393 net116
*394 net1160
*395 net1161
*396 net1162
*397 net1163
*398 net1164
*399 net1165
*400 net1166
*401 net1167
*402 net1168
*403 net1169
*404 net117
*405 net1170
*406 net1171
*407 net1172
*408 net1173
*409 net1174
*410 net1175
*411 net1176
*412 net1177
*413 net1178
*414 net1179
*415 net118
*416 net1180
*417 net1181
*418 net1182
*419 net1183
*420 net1184
*421 net1185
*422 net1186
*423 net1187
*424 net1188
*425 net1189
*426 net119
*427 net1190
*428 net1191
*429 net1192
*430 net1193
*431 net1194
*432 net1195
*433 net1196
*434 net1197
*435 net1198
*436 net12
*437 net120
*438 net121
*439 net122
*440 net123
*441 net124
*442 net125
*443 net126
*444 net127
*445 net128
*446 net129
*447 net13
*448 net130
*449 net131
*450 net132
*451 net133
*452 net134
*453 net135
*454 net136
*455 net137
*456 net138
*457 net139
*458 net14
*459 net140
*460 net141
*461 net142
*462 net143
*463 net144
*464 net145
*465 net146
*466 net147
*467 net148
*468 net149
*469 net15
*470 net150
*471 net151
*472 net152
*473 net153
*474 net154
*475 net155
*476 net156
*477 net157
*478 net158
*479 net159
*480 net16
*481 net160
*482 net161
*483 net162
*484 net163
*485 net164
*486 net165
*487 net166
*488 net167
*489 net168
*490 net169
*491 net17
*492 net170
*493 net171
*494 net172
*495 net173
*496 net174
*497 net175
*498 net176
*499 net177
*500 net178
*501 net179
*502 net18
*503 net180
*504 net181
*505 net182
*506 net183
*507 net184
*508 net185
*509 net186
*510 net187
*511 net188
*512 net189
*513 net19
*514 net190
*515 net191
*516 net192
*517 net193
*518 net194
*519 net195
*520 net196
*521 net197
*522 net198
*523 net199
*524 net2
*525 net20
*526 net200
*527 net201
*528 net202
*529 net203
*530 net204
*531 net205
*532 net206
*533 net207
*534 net208
*535 net209
*536 net21
*537 net210
*538 net211
*539 net212
*540 net213
*541 net214
*542 net215
*543 net216
*544 net217
*545 net218
*546 net219
*547 net22
*548 net220
*549 net221
*550 net222
*551 net223
*552 net224
*553 net225
*554 net226
*555 net227
*556 net228
*557 net229
*558 net23
*559 net230
*560 net231
*561 net232
*562 net233
*563 net234
*564 net235
*565 net236
*566 net237
*567 net238
*568 net239
*569 net24
*570 net240
*571 net241
*572 net242
*573 net243
*574 net244
*575 net245
*576 net246
*577 net247
*578 net248
*579 net249
*580 net25
*581 net250
*582 net251
*583 net252
*584 net253
*585 net254
*586 net255
*587 net256
*588 net257
*589 net258
*590 net259
*591 net26
*592 net260
*593 net261
*594 net262
*595 net263
*596 net264
*597 net265
*598 net266
*599 net267
*600 net268
*601 net269
*602 net27
*603 net270
*604 net271
*605 net272
*606 net273
*607 net274
*608 net275
*609 net276
*610 net277
*611 net278
*612 net279
*613 net28
*614 net280
*615 net281
*616 net282
*617 net283
*618 net284
*619 net285
*620 net286
*621 net287
*622 net288
*623 net289
*624 net29
*625 net290
*626 net291
*627 net292
*628 net293
*629 net294
*630 net295
*631 net296
*632 net297
*633 net298
*634 net299
*635 net3
*636 net30
*637 net300
*638 net301
*639 net302
*640 net303
*641 net304
*642 net305
*643 net306
*644 net307
*645 net308
*646 net309
*647 net31
*648 net310
*649 net311
*650 net312
*651 net313
*652 net314
*653 net315
*654 net316
*655 net317
*656 net318
*657 net319
*658 net32
*659 net320
*660 net321
*661 net322
*662 net323
*663 net324
*664 net325
*665 net326
*666 net327
*667 net328
*668 net329
*669 net33
*670 net330
*671 net331
*672 net332
*673 net333
*674 net334
*675 net335
*676 net336
*677 net337
*678 net338
*679 net339
*680 net34
*681 net340
*682 net341
*683 net342
*684 net343
*685 net344
*686 net345
*687 net346
*688 net347
*689 net348
*690 net349
*691 net35
*692 net350
*693 net351
*694 net352
*695 net353
*696 net354
*697 net355
*698 net356
*699 net357
*700 net358
*701 net359
*702 net36
*703 net360
*704 net361
*705 net362
*706 net363
*707 net364
*708 net365
*709 net366
*710 net367
*711 net368
*712 net369
*713 net37
*714 net370
*715 net371
*716 net372
*717 net373
*718 net374
*719 net375
*720 net376
*721 net377
*722 net378
*723 net379
*724 net38
*725 net380
*726 net381
*727 net382
*728 net383
*729 net384
*730 net385
*731 net386
*732 net387
*733 net388
*734 net389
*735 net39
*736 net390
*737 net391
*738 net392
*739 net393
*740 net394
*741 net395
*742 net396
*743 net397
*744 net398
*745 net399
*746 net4
*747 net40
*748 net400
*749 net401
*750 net402
*751 net403
*752 net404
*753 net405
*754 net406
*755 net407
*756 net408
*757 net409
*758 net41
*759 net410
*760 net411
*761 net412
*762 net413
*763 net414
*764 net415
*765 net416
*766 net417
*767 net418
*768 net419
*769 net42
*770 net420
*771 net421
*772 net422
*773 net423
*774 net424
*775 net425
*776 net426
*777 net427
*778 net428
*779 net429
*780 net43
*781 net430
*782 net431
*783 net432
*784 net433
*785 net434
*786 net435
*787 net436
*788 net437
*789 net438
*790 net439
*791 net44
*792 net440
*793 net441
*794 net442
*795 net443
*796 net444
*797 net445
*798 net446
*799 net447
*800 net448
*801 net449
*802 net45
*803 net450
*804 net451
*805 net452
*806 net453
*807 net454
*808 net455
*809 net456
*810 net457
*811 net458
*812 net459
*813 net46
*814 net460
*815 net461
*816 net462
*817 net463
*818 net464
*819 net465
*820 net466
*821 net467
*822 net468
*823 net469
*824 net47
*825 net470
*826 net471
*827 net472
*828 net473
*829 net474
*830 net475
*831 net476
*832 net477
*833 net478
*834 net479
*835 net48
*836 net480
*837 net481
*838 net482
*839 net483
*840 net484
*841 net485
*842 net486
*843 net487
*844 net488
*845 net489
*846 net49
*847 net490
*848 net491
*849 net492
*850 net493
*851 net494
*852 net495
*853 net496
*854 net497
*855 net498
*856 net499
*857 net5
*858 net50
*859 net500
*860 net501
*861 net502
*862 net503
*863 net504
*864 net505
*865 net506
*866 net507
*867 net508
*868 net509
*869 net51
*870 net510
*871 net511
*872 net512
*873 net513
*874 net514
*875 net515
*876 net516
*877 net517
*878 net518
*879 net519
*880 net52
*881 net520
*882 net521
*883 net522
*884 net523
*885 net524
*886 net525
*887 net526
*888 net527
*889 net528
*890 net529
*891 net53
*892 net530
*893 net531
*894 net532
*895 net533
*896 net534
*897 net535
*898 net536
*899 net537
*900 net538
*901 net539
*902 net54
*903 net540
*904 net541
*905 net542
*906 net543
*907 net544
*908 net545
*909 net546
*910 net547
*911 net548
*912 net549
*913 net55
*914 net550
*915 net551
*916 net552
*917 net553
*918 net554
*919 net555
*920 net556
*921 net557
*922 net558
*923 net559
*924 net56
*925 net560
*926 net561
*927 net562
*928 net563
*929 net564
*930 net565
*931 net566
*932 net567
*933 net568
*934 net569
*935 net57
*936 net570
*937 net571
*938 net572
*939 net573
*940 net574
*941 net575
*942 net576
*943 net577
*944 net578
*945 net579
*946 net58
*947 net580
*948 net581
*949 net582
*950 net583
*951 net584
*952 net585
*953 net586
*954 net587
*955 net588
*956 net589
*957 net59
*958 net590
*959 net591
*960 net592
*961 net593
*962 net594
*963 net595
*964 net596
*965 net597
*966 net598
*967 net599
*968 net6
*969 net60
*970 net600
*971 net601
*972 net602
*973 net603
*974 net604
*975 net605
*976 net606
*977 net607
*978 net608
*979 net609
*980 net61
*981 net610
*982 net611
*983 net612
*984 net613
*985 net614
*986 net615
*987 net616
*988 net617
*989 net618
*990 net619
*991 net62
*992 net620
*993 net621
*994 net622
*995 net623
*996 net624
*997 net625
*998 net626
*999 net627
*1000 net628
*1001 net629
*1002 net63
*1003 net630
*1004 net631
*1005 net632
*1006 net633
*1007 net634
*1008 net635
*1009 net636
*1010 net637
*1011 net638
*1012 net639
*1013 net64
*1014 net640
*1015 net641
*1016 net642
*1017 net643
*1018 net644
*1019 net645
*1020 net646
*1021 net647
*1022 net648
*1023 net649
*1024 net65
*1025 net650
*1026 net651
*1027 net652
*1028 net653
*1029 net654
*1030 net655
*1031 net656
*1032 net657
*1033 net658
*1034 net659
*1035 net66
*1036 net660
*1037 net661
*1038 net662
*1039 net663
*1040 net664
*1041 net665
*1042 net666
*1043 net667
*1044 net668
*1045 net669
*1046 net67
*1047 net670
*1048 net671
*1049 net672
*1050 net673
*1051 net674
*1052 net675
*1053 net676
*1054 net677
*1055 net678
*1056 net679
*1057 net68
*1058 net680
*1059 net681
*1060 net682
*1061 net683
*1062 net684
*1063 net685
*1064 net686
*1065 net687
*1066 net688
*1067 net689
*1068 net69
*1069 net690
*1070 net691
*1071 net692
*1072 net693
*1073 net694
*1074 net695
*1075 net696
*1076 net697
*1077 net698
*1078 net699
*1079 net7
*1080 net70
*1081 net700
*1082 net701
*1083 net702
*1084 net703
*1085 net704
*1086 net705
*1087 net706
*1088 net707
*1089 net708
*1090 net709
*1091 net71
*1092 net710
*1093 net711
*1094 net712
*1095 net713
*1096 net714
*1097 net715
*1098 net716
*1099 net717
*1100 net718
*1101 net719
*1102 net72
*1103 net720
*1104 net721
*1105 net722
*1106 net723
*1107 net724
*1108 net725
*1109 net726
*1110 net727
*1111 net728
*1112 net729
*1113 net73
*1114 net730
*1115 net731
*1116 net732
*1117 net733
*1118 net734
*1119 net735
*1120 net736
*1121 net737
*1122 net738
*1123 net739
*1124 net74
*1125 net740
*1126 net741
*1127 net742
*1128 net743
*1129 net744
*1130 net745
*1131 net746
*1132 net747
*1133 net748
*1134 net749
*1135 net75
*1136 net750
*1137 net751
*1138 net752
*1139 net753
*1140 net754
*1141 net755
*1142 net756
*1143 net757
*1144 net758
*1145 net759
*1146 net76
*1147 net760
*1148 net761
*1149 net762
*1150 net763
*1151 net764
*1152 net765
*1153 net766
*1154 net767
*1155 net768
*1156 net769
*1157 net77
*1158 net770
*1159 net771
*1160 net772
*1161 net773
*1162 net774
*1163 net775
*1164 net776
*1165 net777
*1166 net778
*1167 net779
*1168 net78
*1169 net780
*1170 net781
*1171 net782
*1172 net783
*1173 net784
*1174 net785
*1175 net786
*1176 net787
*1177 net788
*1178 net789
*1179 net79
*1180 net790
*1181 net791
*1182 net792
*1183 net793
*1184 net794
*1185 net795
*1186 net796
*1187 net797
*1188 net798
*1189 net799
*1190 net8
*1191 net80
*1192 net800
*1193 net801
*1194 net802
*1195 net803
*1196 net804
*1197 net805
*1198 net806
*1199 net807
*1200 net808
*1201 net809
*1202 net81
*1203 net810
*1204 net811
*1205 net812
*1206 net813
*1207 net814
*1208 net815
*1209 net816
*1210 net817
*1211 net818
*1212 net819
*1213 net82
*1214 net820
*1215 net821
*1216 net822
*1217 net823
*1218 net824
*1219 net825
*1220 net826
*1221 net827
*1222 net828
*1223 net829
*1224 net83
*1225 net830
*1226 net831
*1227 net832
*1228 net833
*1229 net834
*1230 net835
*1231 net836
*1232 net837
*1233 net838
*1234 net839
*1235 net84
*1236 net840
*1237 net841
*1238 net842
*1239 net843
*1240 net844
*1241 net845
*1242 net846
*1243 net847
*1244 net848
*1245 net849
*1246 net85
*1247 net850
*1248 net851
*1249 net852
*1250 net853
*1251 net854
*1252 net855
*1253 net856
*1254 net857
*1255 net858
*1256 net859
*1257 net86
*1258 net860
*1259 net861
*1260 net862
*1261 net863
*1262 net864
*1263 net865
*1264 net866
*1265 net867
*1266 net868
*1267 net869
*1268 net87
*1269 net870
*1270 net871
*1271 net872
*1272 net873
*1273 net874
*1274 net875
*1275 net876
*1276 net877
*1277 net878
*1278 net879
*1279 net88
*1280 net880
*1281 net881
*1282 net882
*1283 net883
*1284 net884
*1285 net885
*1286 net886
*1287 net887
*1288 net888
*1289 net889
*1290 net89
*1291 net890
*1292 net891
*1293 net892
*1294 net893
*1295 net894
*1296 net895
*1297 net896
*1298 net897
*1299 net898
*1300 net899
*1301 net9
*1302 net90
*1303 net900
*1304 net901
*1305 net902
*1306 net903
*1307 net904
*1308 net905
*1309 net906
*1310 net907
*1311 net908
*1312 net909
*1313 net91
*1314 net910
*1315 net911
*1316 net912
*1317 net913
*1318 net914
*1319 net915
*1320 net916
*1321 net917
*1322 net918
*1323 net919
*1324 net92
*1325 net920
*1326 net921
*1327 net922
*1328 net923
*1329 net924
*1330 net925
*1331 net926
*1332 net927
*1333 net928
*1334 net929
*1335 net93
*1336 net930
*1337 net931
*1338 net932
*1339 net933
*1340 net934
*1341 net935
*1342 net936
*1343 net937
*1344 net938
*1345 net939
*1346 net94
*1347 net940
*1348 net941
*1349 net942
*1350 net943
*1351 net944
*1352 net945
*1353 net946
*1354 net947
*1355 net948
*1356 net949
*1357 net95
*1358 net950
*1359 net951
*1360 net952
*1361 net953
*1362 net954
*1363 net955
*1364 net956
*1365 net957
*1366 net958
*1367 net959
*1368 net96
*1369 net960
*1370 net961
*1371 net962
*1372 net963
*1373 net964
*1374 net965
*1375 net966
*1376 net967
*1377 net968
*1378 net969
*1379 net97
*1380 net970
*1381 net971
*1382 net972
*1383 net973
*1384 net974
*1385 net975
*1386 net976
*1387 net977
*1388 net978
*1389 net979
*1390 net98
*1391 net980
*1392 net981
*1393 net982
*1394 net983
*1395 net984
*1396 net985
*1397 net986
*1398 net987
*1399 net988
*1400 net989
*1401 net99
*1402 net990
*1403 net991
*1404 net992
*1405 net993
*1406 net994
*1407 net995
*1408 net996
*1409 net997
*1410 net998
*1411 net999
*1412 ANTENNA_1
*1413 ANTENNA_2
*1414 ANTENNA_3
*1415 ANTENNA_c100_A
*1416 ANTENNA_c100_X
*1417 ANTENNA_c101_A1
*1418 ANTENNA_c101_A2
*1419 ANTENNA_c101_B1
*1420 ANTENNA_c101_D1
*1421 ANTENNA_c102_B1
*1422 ANTENNA_c102_D1
*1423 ANTENNA_c102_X
*1424 ANTENNA_c104_A
*1425 ANTENNA_c105_A
*1426 ANTENNA_c105_B
*1427 ANTENNA_c105_C
*1428 ANTENNA_c105_X
*1429 ANTENNA_c106_B
*1430 ANTENNA_c106_X
*1431 ANTENNA_c108_B1
*1432 ANTENNA_c108_C1
*1433 ANTENNA_c108_X
*1434 ANTENNA_c110_A
*1435 ANTENNA_c110_B
*1436 ANTENNA_c110_C
*1437 ANTENNA_c111_A
*1438 ANTENNA_c111_B
*1439 ANTENNA_c111_X
*1440 ANTENNA_c112_A1
*1441 ANTENNA_c112_A2
*1442 ANTENNA_c112_B1
*1443 ANTENNA_c112_C1
*1444 ANTENNA_c112_X
*1445 ANTENNA_c113_B
*1446 ANTENNA_c113_X
*1447 ANTENNA_c114_C
*1448 ANTENNA_c115_A
*1449 ANTENNA_c115_B
*1450 ANTENNA_c116_A1
*1451 ANTENNA_c116_B1
*1452 ANTENNA_c116_D1
*1453 ANTENNA_c116_X
*1454 ANTENNA_c117_B
*1455 ANTENNA_c119_B
*1456 ANTENNA_c119_C
*1457 ANTENNA_c119_X
*1458 ANTENNA_c120_A
*1459 ANTENNA_c120_C_N
*1460 ANTENNA_c120_D_N
*1461 ANTENNA_c121_C
*1462 ANTENNA_c122_B1
*1463 ANTENNA_c123_B1
*1464 ANTENNA_c123_D1
*1465 ANTENNA_c124_B
*1466 ANTENNA_c125_C1
*1467 ANTENNA_c125_D1
*1468 ANTENNA_c126_A0
*1469 ANTENNA_c126_A2
*1470 ANTENNA_c126_S0
*1471 ANTENNA_c126_S1
*1472 ANTENNA_c127_A3
*1473 ANTENNA_c128_A2
*1474 ANTENNA_c129_B
*1475 ANTENNA_c130_A2
*1476 ANTENNA_c131_CLK_N
*1477 ANTENNA_c131_Q
*1478 ANTENNA_c131_SCE
*1479 ANTENNA_c131_SET_B
*1480 ANTENNA_c132_A
*1481 ANTENNA_c132_B
*1482 ANTENNA_c132_C
*1483 ANTENNA_c132_X
*1484 ANTENNA_c133_A
*1485 ANTENNA_c133_B
*1486 ANTENNA_c133_X
*1487 ANTENNA_c134_A
*1488 ANTENNA_c134_B
*1489 ANTENNA_c135_A
*1490 ANTENNA_c135_B
*1491 ANTENNA_c136_A
*1492 ANTENNA_c136_B
*1493 ANTENNA_c136_X
*1494 ANTENNA_c137_A
*1495 ANTENNA_c137_B
*1496 ANTENNA_c137_X
*1497 ANTENNA_c138_A
*1498 ANTENNA_c138_B
*1499 ANTENNA_c138_X
*1500 ANTENNA_c139_A
*1501 ANTENNA_c139_B
*1502 ANTENNA_c139_X
*1503 ANTENNA_c140_A
*1504 ANTENNA_c140_B
*1505 ANTENNA_c140_X
*1506 ANTENNA_c141_A
*1507 ANTENNA_c141_B
*1508 ANTENNA_c141_X
*1509 ANTENNA_c142_A
*1510 ANTENNA_c142_B
*1511 ANTENNA_c142_C
*1512 ANTENNA_c142_X
*1513 ANTENNA_c143_A
*1514 ANTENNA_c143_B
*1515 ANTENNA_c143_X
*1516 ANTENNA_c144_A
*1517 ANTENNA_c144_X
*1518 ANTENNA_c145_A
*1519 ANTENNA_c145_B
*1520 ANTENNA_c145_X
*1521 ANTENNA_c146_A
*1522 ANTENNA_c146_B
*1523 ANTENNA_c146_X
*1524 ANTENNA_c147_A
*1525 ANTENNA_c147_B
*1526 ANTENNA_c147_X
*1527 ANTENNA_c148_A
*1528 ANTENNA_c148_B
*1529 ANTENNA_c148_X
*1530 ANTENNA_c149_A
*1531 ANTENNA_c149_B
*1532 ANTENNA_c149_X
*1533 ANTENNA_c150_A
*1534 ANTENNA_c150_B
*1535 ANTENNA_c150_X
*1536 ANTENNA_c151_A0
*1537 ANTENNA_c151_A1
*1538 ANTENNA_c151_A2
*1539 ANTENNA_c151_A3
*1540 ANTENNA_c151_S0
*1541 ANTENNA_c151_S1
*1542 ANTENNA_c152_A1
*1543 ANTENNA_c152_B1
*1544 ANTENNA_c152_C1
*1545 ANTENNA_c152_D1
*1546 ANTENNA_c152_X
*1547 ANTENNA_c153_A1
*1548 ANTENNA_c153_A2
*1549 ANTENNA_c153_B1
*1550 ANTENNA_c153_C1
*1551 ANTENNA_c153_D1
*1552 ANTENNA_c153_X
*1553 ANTENNA_c154_A
*1554 ANTENNA_c154_B
*1555 ANTENNA_c155_A
*1556 ANTENNA_c155_B
*1557 ANTENNA_c155_X
*1558 ANTENNA_c156_A
*1559 ANTENNA_c156_B
*1560 ANTENNA_c157_A
*1561 ANTENNA_c158_A
*1562 ANTENNA_c159_A
*1563 ANTENNA_c159_B
*1564 ANTENNA_c160_A
*1565 ANTENNA_c160_B
*1566 ANTENNA_c160_X
*1567 ANTENNA_c161_B
*1568 ANTENNA_c161_X
*1569 ANTENNA_c162_A
*1570 ANTENNA_c162_X
*1571 ANTENNA_c163_A
*1572 ANTENNA_c163_X
*1573 ANTENNA_c164_X
*1574 ANTENNA_c165_A
*1575 ANTENNA_c165_B
*1576 ANTENNA_c166_A
*1577 ANTENNA_c166_B
*1578 ANTENNA_c166_C
*1579 ANTENNA_c166_X
*1580 ANTENNA_c167_A0
*1581 ANTENNA_c167_A1
*1582 ANTENNA_c167_A2
*1583 ANTENNA_c167_S0
*1584 ANTENNA_c167_S1
*1585 ANTENNA_c167_X
*1586 ANTENNA_c168_A1
*1587 ANTENNA_c168_A2
*1588 ANTENNA_c168_A3
*1589 ANTENNA_c168_S0
*1590 ANTENNA_c168_S1
*1591 ANTENNA_c168_X
*1592 ANTENNA_c169_A
*1593 ANTENNA_c169_C
*1594 ANTENNA_c170_B
*1595 ANTENNA_c170_X
*1596 ANTENNA_c171_A2
*1597 ANTENNA_c171_B1
*1598 ANTENNA_c171_C1
*1599 ANTENNA_c171_D1
*1600 ANTENNA_c171_X
*1601 ANTENNA_c172_A
*1602 ANTENNA_c172_X
*1603 ANTENNA_c173_A
*1604 ANTENNA_c173_X
*1605 ANTENNA_c174_B
*1606 ANTENNA_c175_A1
*1607 ANTENNA_c175_A2
*1608 ANTENNA_c175_A3
*1609 ANTENNA_c175_S0
*1610 ANTENNA_c175_S1
*1611 ANTENNA_c175_X
*1612 ANTENNA_c176_A
*1613 ANTENNA_c176_B
*1614 ANTENNA_c176_C
*1615 ANTENNA_c176_X
*1616 ANTENNA_c177_A
*1617 ANTENNA_c177_B
*1618 ANTENNA_c177_C_N
*1619 ANTENNA_c177_D_N
*1620 ANTENNA_c178_B
*1621 ANTENNA_c178_X
*1622 ANTENNA_c179_A
*1623 ANTENNA_c179_B
*1624 ANTENNA_c179_X
*1625 ANTENNA_c180_B
*1626 ANTENNA_c180_C
*1627 ANTENNA_c180_X
*1628 ANTENNA_c181_A
*1629 ANTENNA_c181_X
*1630 ANTENNA_c182_A1
*1631 ANTENNA_c182_B1
*1632 ANTENNA_c182_C1
*1633 ANTENNA_c182_D1
*1634 ANTENNA_c183_B
*1635 ANTENNA_c183_C
*1636 ANTENNA_c183_X
*1637 ANTENNA_c184_A
*1638 ANTENNA_c184_C_N
*1639 ANTENNA_c184_D_N
*1640 ANTENNA_c184_X
*1641 ANTENNA_c185_A2
*1642 ANTENNA_c185_B1
*1643 ANTENNA_c185_C1
*1644 ANTENNA_c185_D1
*1645 ANTENNA_c185_X
*1646 ANTENNA_c186_A
*1647 ANTENNA_c186_C
*1648 ANTENNA_c186_X
*1649 ANTENNA_c187_A
*1650 ANTENNA_c187_B
*1651 ANTENNA_c187_C_N
*1652 ANTENNA_c187_D_N
*1653 ANTENNA_c187_X
*1654 ANTENNA_c188_A
*1655 ANTENNA_c188_B
*1656 ANTENNA_c188_C_N
*1657 ANTENNA_c188_D_N
*1658 ANTENNA_c188_X
*1659 ANTENNA_c189_A1
*1660 ANTENNA_c189_B1
*1661 ANTENNA_c189_C1
*1662 ANTENNA_c189_D1
*1663 ANTENNA_c189_X
*1664 ANTENNA_c190_B
*1665 ANTENNA_c190_X
*1666 ANTENNA_c191_A
*1667 ANTENNA_c191_B
*1668 ANTENNA_c191_C_N
*1669 ANTENNA_c192_A1
*1670 ANTENNA_c192_B1
*1671 ANTENNA_c192_D1
*1672 ANTENNA_c192_X
*1673 ANTENNA_c193_A0
*1674 ANTENNA_c193_A1
*1675 ANTENNA_c193_A2
*1676 ANTENNA_c193_S0
*1677 ANTENNA_c193_S1
*1678 ANTENNA_c194_B
*1679 ANTENNA_c195_A2
*1680 ANTENNA_c195_C1
*1681 ANTENNA_c195_X
*1682 ANTENNA_c196_A1
*1683 ANTENNA_c196_A2
*1684 ANTENNA_c196_B1
*1685 ANTENNA_c196_D1
*1686 ANTENNA_c197_A1
*1687 ANTENNA_c197_B1
*1688 ANTENNA_c197_C1
*1689 ANTENNA_c197_X
*1690 ANTENNA_c198_A1
*1691 ANTENNA_c198_C1
*1692 ANTENNA_c198_D1
*1693 ANTENNA_c199_A
*1694 ANTENNA_c199_C
*1695 ANTENNA_c200_C
*1696 ANTENNA_c200_X
*1697 ANTENNA_c201_B
*1698 ANTENNA_c201_C
*1699 ANTENNA_c201_X
*1700 ANTENNA_c202_A1
*1701 ANTENNA_c202_A2
*1702 ANTENNA_c202_C1
*1703 ANTENNA_c202_D1
*1704 ANTENNA_c202_X
*1705 ANTENNA_c203_B
*1706 ANTENNA_c203_C_N
*1707 ANTENNA_c203_X
*1708 ANTENNA_c204_B
*1709 ANTENNA_c204_C
*1710 ANTENNA_c205_A0
*1711 ANTENNA_c205_A1
*1712 ANTENNA_c205_A2
*1713 ANTENNA_c205_A3
*1714 ANTENNA_c205_S0
*1715 ANTENNA_c205_S1
*1716 ANTENNA_c206_B
*1717 ANTENNA_c206_C
*1718 ANTENNA_c207_A1
*1719 ANTENNA_c207_B1
*1720 ANTENNA_c208_A0
*1721 ANTENNA_c208_A1
*1722 ANTENNA_c208_A2
*1723 ANTENNA_c208_A3
*1724 ANTENNA_c208_S1
*1725 ANTENNA_c209_A2
*1726 ANTENNA_c209_C1
*1727 ANTENNA_c209_D1
*1728 ANTENNA_c210_C_N
*1729 ANTENNA_c210_D_N
*1730 ANTENNA_c211_C1
*1731 ANTENNA_c211_D1
*1732 ANTENNA_c211_X
*1733 ANTENNA_c212_B1
*1734 ANTENNA_c212_C1
*1735 ANTENNA_c212_D1
*1736 ANTENNA_c213_A1
*1737 ANTENNA_c213_B1
*1738 ANTENNA_c213_D1
*1739 ANTENNA_c214_A1
*1740 ANTENNA_c214_A3
*1741 ANTENNA_c214_S1
*1742 ANTENNA_c215_A2
*1743 ANTENNA_c215_B1
*1744 ANTENNA_c215_D1
*1745 ANTENNA_c215_X
*1746 ANTENNA_c216_A2
*1747 ANTENNA_c216_S1
*1748 ANTENNA_c217_CLK_N
*1749 ANTENNA_c217_D
*1750 ANTENNA_c217_Q
*1751 ANTENNA_c217_Q_N
*1752 ANTENNA_c217_SCD
*1753 ANTENNA_c217_SCE
*1754 ANTENNA_c217_SET_B
*1755 ANTENNA_c218_B1
*1756 ANTENNA_c218_C1
*1757 ANTENNA_c218_D1
*1758 ANTENNA_c219_A1
*1759 ANTENNA_c219_A2
*1760 ANTENNA_c219_B1
*1761 ANTENNA_c219_C1
*1762 ANTENNA_c219_D1
*1763 ANTENNA_c219_X
*1764 ANTENNA_c220_A2
*1765 ANTENNA_c220_B1
*1766 ANTENNA_c220_C1
*1767 ANTENNA_c220_D1
*1768 ANTENNA_c221_A1
*1769 ANTENNA_c221_B1
*1770 ANTENNA_c221_C1
*1771 ANTENNA_c221_D1
*1772 ANTENNA_c222_A2
*1773 ANTENNA_c222_A3
*1774 ANTENNA_c222_S0
*1775 ANTENNA_c222_S1
*1776 ANTENNA_c223_CLK
*1777 ANTENNA_c223_Q
*1778 ANTENNA_c223_SCD
*1779 ANTENNA_c224_A1
*1780 ANTENNA_c224_B1
*1781 ANTENNA_c224_C1
*1782 ANTENNA_c224_D1
*1783 ANTENNA_c224_X
*1784 ANTENNA_c225_C1
*1785 ANTENNA_c226_A1
*1786 ANTENNA_c226_A2
*1787 ANTENNA_c226_A3
*1788 ANTENNA_c226_S0
*1789 ANTENNA_c226_S1
*1790 ANTENNA_c226_X
*1791 ANTENNA_c227_A0
*1792 ANTENNA_c227_A2
*1793 ANTENNA_c227_A3
*1794 ANTENNA_c227_S0
*1795 ANTENNA_c227_S1
*1796 ANTENNA_c228_B1
*1797 ANTENNA_c228_C1
*1798 ANTENNA_c228_D1
*1799 ANTENNA_c229_B1
*1800 ANTENNA_c229_C1
*1801 ANTENNA_c230_A1
*1802 ANTENNA_c230_B1
*1803 ANTENNA_c230_C1
*1804 ANTENNA_c230_D1
*1805 ANTENNA_c231_C1
*1806 ANTENNA_c232_A2
*1807 ANTENNA_c232_B1
*1808 ANTENNA_c232_D1
*1809 ANTENNA_c233_A2
*1810 ANTENNA_c233_B1
*1811 ANTENNA_c233_C1
*1812 ANTENNA_c233_D1
*1813 ANTENNA_c234_CLK_N
*1814 ANTENNA_c234_D
*1815 ANTENNA_c234_SCD
*1816 ANTENNA_c235_B1
*1817 ANTENNA_c235_D1
*1818 ANTENNA_c236_A1
*1819 ANTENNA_c236_A2
*1820 ANTENNA_c236_A3
*1821 ANTENNA_c236_S1
*1822 ANTENNA_c238_B1
*1823 ANTENNA_c239_A0
*1824 ANTENNA_c240_S1
*1825 ANTENNA_c241_A1
*1826 ANTENNA_c241_S0
*1827 ANTENNA_c242_A0
*1828 ANTENNA_c242_A2
*1829 ANTENNA_c242_A3
*1830 ANTENNA_c243_A1
*1831 ANTENNA_c243_A2
*1832 ANTENNA_c243_A3
*1833 ANTENNA_c243_S0
*1834 ANTENNA_c244_A1
*1835 ANTENNA_c244_A3
*1836 ANTENNA_c244_S0
*1837 ANTENNA_c244_S1
*1838 ANTENNA_c245_A0
*1839 ANTENNA_c245_A1
*1840 ANTENNA_c245_A2
*1841 ANTENNA_c245_S1
*1842 ANTENNA_c246_A1
*1843 ANTENNA_c246_A2
*1844 ANTENNA_c246_A3
*1845 ANTENNA_c246_S1
*1846 ANTENNA_c247_A0
*1847 ANTENNA_c247_A1
*1848 ANTENNA_c247_A2
*1849 ANTENNA_c247_A3
*1850 ANTENNA_c247_S0
*1851 ANTENNA_c248_A0
*1852 ANTENNA_c248_A1
*1853 ANTENNA_c248_A2
*1854 ANTENNA_c248_S0
*1855 ANTENNA_c249_A2
*1856 ANTENNA_c249_A3
*1857 ANTENNA_c249_S0
*1858 ANTENNA_c250_A0
*1859 ANTENNA_c250_A1
*1860 ANTENNA_c250_A3
*1861 ANTENNA_c250_S0
*1862 ANTENNA_c250_S1
*1863 ANTENNA_c250_X
*1864 ANTENNA_c251_A0
*1865 ANTENNA_c251_A1
*1866 ANTENNA_c251_A2
*1867 ANTENNA_c251_S0
*1868 ANTENNA_c251_S1
*1869 ANTENNA_c252_A0
*1870 ANTENNA_c252_A1
*1871 ANTENNA_c252_A2
*1872 ANTENNA_c252_A3
*1873 ANTENNA_c253_A1
*1874 ANTENNA_c253_S1
*1875 ANTENNA_c254_A0
*1876 ANTENNA_c254_A2
*1877 ANTENNA_c254_S0
*1878 ANTENNA_c254_S1
*1879 ANTENNA_c255_A0
*1880 ANTENNA_c255_A3
*1881 ANTENNA_c255_S0
*1882 ANTENNA_c256_A2
*1883 ANTENNA_c256_A3
*1884 ANTENNA_c256_S1
*1885 ANTENNA_c257_A0
*1886 ANTENNA_c257_A3