*SPEF "ieee 1481-1999"
*DESIGN "netlist_1"
*DATE "21:25:18 Thursday August 08, 2024"
*VENDOR "The OpenROAD Project"
*PROGRAM "OpenROAD"
*VERSION "d423155d69de7f683a23f6916ead418a615ad4ad"
*DESIGN_FLOW "NAME_SCOPE LOCAL" "PIN_CAP NONE"
*DIVIDER /
*DELIMITER :
*BUS_DELIMITER []
*T_UNIT 1 NS
*C_UNIT 1 PF
*R_UNIT 1 OHM
*L_UNIT 1 HENRY

*NAME_MAP
*3 clk
*4 in0
*5 in1
*6 in10
*7 in11
*8 in12
*9 in13
*10 in14
*11 in15
*12 in16
*13 in17
*14 in18
*15 in19
*16 in2
*17 in20
*18 in21
*19 in22
*20 in23
*21 in24
*22 in25
*23 in26
*24 in27
*25 in28
*26 in29
*27 in3
*28 in30
*29 in31
*30 in32
*31 in33
*32 in34
*33 in35
*34 in36
*35 in37
*36 in38
*37 in39
*38 in4
*39 in40
*40 in41
*41 in42
*42 in43
*43 in44
*44 in45
*45 in46
*46 in47
*47 in48
*48 in49
*49 in5
*50 in50
*51 in51
*52 in52
*53 in53
*54 in54
*55 in55
*56 in56
*57 in57
*58 in58
*59 in59
*60 in6
*61 in60
*62 in61
*63 in7
*64 in8
*65 in9
*66 out0
*67 out1
*68 out10
*69 out11
*70 out12
*71 out13
*72 out14
*73 out15
*74 out16
*75 out17
*76 out18
*77 out19
*78 out2
*79 out20
*80 out21
*81 out22
*82 out23
*83 out24
*84 out25
*85 out26
*86 out27
*87 out28
*88 out29
*89 out3
*90 out30
*91 out31
*92 out32
*93 out33
*94 out34
*95 out35
*96 out36
*97 out37
*98 out38
*99 out39
*100 out4
*101 out40
*102 out41
*103 out42
*104 out43
*105 out44
*106 out45
*107 out46
*108 out47
*109 out48
*110 out49
*111 out5
*112 out50
*113 out51
*114 out52
*115 out53
*116 out54
*117 out55
*118 out56
*119 out57
*120 out58
*121 out59
*122 out6
*123 out60
*124 out61
*125 out7
*126 out8
*127 out9
*128 rst
*129 clknet_0_clk
*130 clknet_0_net130
*131 clknet_0_net154
*132 clknet_0_net155
*133 clknet_0_net156
*134 clknet_0_net196
*135 clknet_0_net275
*136 clknet_0_net280
*137 clknet_0_net281
*138 clknet_0_net299
*139 clknet_0_net373
*140 clknet_0_net375
*141 clknet_0_net386
*142 clknet_0_net389
*143 clknet_0_net393
*144 clknet_0_net403
*145 clknet_0_net404
*146 clknet_0_net501
*147 clknet_0_net531
*148 clknet_0_net576
*149 clknet_0_net577
*150 clknet_0_net580
*151 clknet_0_net598
*152 clknet_0_net632
*153 clknet_0_net633
*154 clknet_0_net646
*155 clknet_0_net654
*156 clknet_0_net655
*157 clknet_0_net671
*158 clknet_0_net672
*159 clknet_0_net686
*160 clknet_0_net687
*161 clknet_0_net702
*162 clknet_0_net716
*163 clknet_0_net735
*164 clknet_0_net736
*165 clknet_0_net826
*166 clknet_0_net831
*167 clknet_0_net834
*168 clknet_0_net846
*169 clknet_0_net855
*170 clknet_0_net859
*171 clknet_0_net871
*172 clknet_0_net874
*173 clknet_1_0__leaf_net130
*174 clknet_1_0__leaf_net154
*175 clknet_1_0__leaf_net155
*176 clknet_1_0__leaf_net156
*177 clknet_1_0__leaf_net196
*178 clknet_1_0__leaf_net275
*179 clknet_1_0__leaf_net280
*180 clknet_1_0__leaf_net281
*181 clknet_1_0__leaf_net299
*182 clknet_1_0__leaf_net373
*183 clknet_1_0__leaf_net375
*184 clknet_1_0__leaf_net386
*185 clknet_1_0__leaf_net389
*186 clknet_1_0__leaf_net393
*187 clknet_1_0__leaf_net403
*188 clknet_1_0__leaf_net404
*189 clknet_1_0__leaf_net501
*190 clknet_1_0__leaf_net531
*191 clknet_1_0__leaf_net576
*192 clknet_1_0__leaf_net577
*193 clknet_1_0__leaf_net580
*194 clknet_1_0__leaf_net598
*195 clknet_1_0__leaf_net632
*196 clknet_1_0__leaf_net633
*197 clknet_1_0__leaf_net646
*198 clknet_1_0__leaf_net654
*199 clknet_1_0__leaf_net655
*200 clknet_1_0__leaf_net671
*201 clknet_1_0__leaf_net672
*202 clknet_1_0__leaf_net686
*203 clknet_1_0__leaf_net687
*204 clknet_1_0__leaf_net702
*205 clknet_1_0__leaf_net716
*206 clknet_1_0__leaf_net735
*207 clknet_1_0__leaf_net736
*208 clknet_1_0__leaf_net826
*209 clknet_1_0__leaf_net831
*210 clknet_1_0__leaf_net834
*211 clknet_1_0__leaf_net846
*212 clknet_1_0__leaf_net855
*213 clknet_1_0__leaf_net859
*214 clknet_1_0__leaf_net871
*215 clknet_1_0__leaf_net874
*216 clknet_1_1__leaf_net130
*217 clknet_1_1__leaf_net154
*218 clknet_1_1__leaf_net155
*219 clknet_1_1__leaf_net156
*220 clknet_1_1__leaf_net196
*221 clknet_1_1__leaf_net275
*222 clknet_1_1__leaf_net280
*223 clknet_1_1__leaf_net281
*224 clknet_1_1__leaf_net299
*225 clknet_1_1__leaf_net373
*226 clknet_1_1__leaf_net375
*227 clknet_1_1__leaf_net386
*228 clknet_1_1__leaf_net389
*229 clknet_1_1__leaf_net393
*230 clknet_1_1__leaf_net403
*231 clknet_1_1__leaf_net404
*232 clknet_1_1__leaf_net501
*233 clknet_1_1__leaf_net531
*234 clknet_1_1__leaf_net576
*235 clknet_1_1__leaf_net577
*236 clknet_1_1__leaf_net580
*237 clknet_1_1__leaf_net598
*238 clknet_1_1__leaf_net632
*239 clknet_1_1__leaf_net633
*240 clknet_1_1__leaf_net646
*241 clknet_1_1__leaf_net654
*242 clknet_1_1__leaf_net655
*243 clknet_1_1__leaf_net671
*244 clknet_1_1__leaf_net672
*245 clknet_1_1__leaf_net686
*246 clknet_1_1__leaf_net687
*247 clknet_1_1__leaf_net702
*248 clknet_1_1__leaf_net716
*249 clknet_1_1__leaf_net735
*250 clknet_1_1__leaf_net736
*251 clknet_1_1__leaf_net826
*252 clknet_1_1__leaf_net831
*253 clknet_1_1__leaf_net834
*254 clknet_1_1__leaf_net846
*255 clknet_1_1__leaf_net855
*256 clknet_1_1__leaf_net859
*257 clknet_1_1__leaf_net871
*258 clknet_1_1__leaf_net874
*259 clknet_2_0__leaf_clk
*260 clknet_2_1__leaf_clk
*261 clknet_2_2__leaf_clk
*262 clknet_2_3__leaf_clk
*263 clknet_leaf_0_clk
*264 clknet_leaf_10_clk
*265 clknet_leaf_11_clk
*266 clknet_leaf_12_clk
*267 clknet_leaf_13_clk
*268 clknet_leaf_14_clk
*269 clknet_leaf_15_clk
*270 clknet_leaf_16_clk
*271 clknet_leaf_18_clk
*272 clknet_leaf_19_clk
*273 clknet_leaf_1_clk
*274 clknet_leaf_20_clk
*275 clknet_leaf_21_clk
*276 clknet_leaf_22_clk
*277 clknet_leaf_23_clk
*278 clknet_leaf_24_clk
*279 clknet_leaf_25_clk
*280 clknet_leaf_26_clk
*281 clknet_leaf_27_clk
*282 clknet_leaf_28_clk
*283 clknet_leaf_29_clk
*284 clknet_leaf_2_clk
*285 clknet_leaf_30_clk
*286 clknet_leaf_31_clk
*287 clknet_leaf_32_clk
*288 clknet_leaf_33_clk
*289 clknet_leaf_34_clk
*290 clknet_leaf_35_clk
*291 clknet_leaf_36_clk
*292 clknet_leaf_37_clk
*293 clknet_leaf_38_clk
*294 clknet_leaf_39_clk
*295 clknet_leaf_3_clk
*296 clknet_leaf_40_clk
*297 clknet_leaf_41_clk
*298 clknet_leaf_42_clk
*299 clknet_leaf_43_clk
*300 clknet_leaf_4_clk
*301 clknet_leaf_5_clk
*302 clknet_leaf_6_clk
*303 clknet_leaf_7_clk
*304 clknet_leaf_8_clk
*305 clknet_leaf_9_clk
*306 net0
*307 net1
*308 net10
*309 net100
*310 net101
*311 net102
*312 net103
*313 net104
*314 net105
*315 net106
*316 net107
*317 net108
*318 net109
*319 net11
*320 net110
*321 net111
*322 net112
*323 net113
*324 net114
*325 net115
*326 net116
*327 net117
*328 net118
*329 net119
*330 net12
*331 net120
*332 net121
*333 net122
*334 net123
*335 net124
*336 net125
*337 net126
*338 net127
*339 net128
*340 net129
*341 net13
*342 net130
*343 net131
*344 net132
*345 net133
*346 net134
*347 net135
*348 net136
*349 net137
*350 net138
*351 net139
*352 net14
*353 net140
*354 net141
*355 net142
*356 net143
*357 net144
*358 net145
*359 net146
*360 net147
*361 net148
*362 net149
*363 net15
*364 net150
*365 net151
*366 net152
*367 net153
*368 net154
*369 net155
*370 net156
*371 net157
*372 net158
*373 net159
*374 net16
*375 net160
*376 net161
*377 net162
*378 net163
*379 net164
*380 net165
*381 net166
*382 net167
*383 net168
*384 net169
*385 net17
*386 net170
*387 net171
*388 net172
*389 net173
*390 net174
*391 net175
*392 net176
*393 net177
*394 net178
*395 net179
*396 net18
*397 net180
*398 net181
*399 net182
*400 net183
*401 net184
*402 net185
*403 net186
*404 net187
*405 net188
*406 net189
*407 net19
*408 net190
*409 net191
*410 net192
*411 net193
*412 net194
*413 net195
*414 net196
*415 net197
*416 net198
*417 net199
*418 net2
*419 net20
*420 net200
*421 net201
*422 net202
*423 net203
*424 net204
*425 net205
*426 net206
*427 net207
*428 net208
*429 net209
*430 net21
*431 net210
*432 net211
*433 net212
*434 net213
*435 net214
*436 net215
*437 net216
*438 net217
*439 net218
*440 net219
*441 net22
*442 net220
*443 net221
*444 net222
*445 net223
*446 net224
*447 net225
*448 net226
*449 net227
*450 net228
*451 net229
*452 net23
*453 net230
*454 net231
*455 net232
*456 net233
*457 net234
*458 net235
*459 net236
*460 net237
*461 net238
*462 net239
*463 net24
*464 net240
*465 net241
*466 net242
*467 net243
*468 net244
*469 net245
*470 net246
*471 net247
*472 net248
*473 net249
*474 net25
*475 net250
*476 net251
*477 net252
*478 net253
*479 net254
*480 net255
*481 net256
*482 net257
*483 net258
*484 net259
*485 net26
*486 net260
*487 net261
*488 net262
*489 net263
*490 net264
*491 net265
*492 net266
*493 net267
*494 net268
*495 net269
*496 net27
*497 net270
*498 net271
*499 net272
*500 net273
*501 net274
*502 net275
*503 net276
*504 net277
*505 net278
*506 net279
*507 net28
*508 net280
*509 net281
*510 net282
*511 net283
*512 net284
*513 net285
*514 net286
*515 net287
*516 net288
*517 net289
*518 net29
*519 net290
*520 net291
*521 net292
*522 net293
*523 net294
*524 net295
*525 net296
*526 net297
*527 net298
*528 net299
*529 net3
*530 net30
*531 net300
*532 net301
*533 net302
*534 net303
*535 net304
*536 net305
*537 net306
*538 net307
*539 net308
*540 net309
*541 net31
*542 net310
*543 net311
*544 net312
*545 net313
*546 net314
*547 net315
*548 net316
*549 net317
*550 net318
*551 net319
*552 net32
*553 net320
*554 net321
*555 net322
*556 net323
*557 net324
*558 net325
*559 net326
*560 net327
*561 net328
*562 net329
*563 net33
*564 net330
*565 net331
*566 net332
*567 net333
*568 net334
*569 net335
*570 net336
*571 net337
*572 net338
*573 net339
*574 net34
*575 net340
*576 net341
*577 net342
*578 net343
*579 net344
*580 net345
*581 net346
*582 net347
*583 net348
*584 net349
*585 net35
*586 net350
*587 net351
*588 net352
*589 net353
*590 net354
*591 net355
*592 net356
*593 net357
*594 net358
*595 net359
*596 net36
*597 net360
*598 net361
*599 net362
*600 net363
*601 net364
*602 net365
*603 net366
*604 net367
*605 net368
*606 net369
*607 net37
*608 net370
*609 net371
*610 net372
*611 net373
*612 net374
*613 net375
*614 net376
*615 net377
*616 net378
*617 net379
*618 net38
*619 net380
*620 net381
*621 net382
*622 net383
*623 net384
*624 net385
*625 net386
*626 net387
*627 net388
*628 net389
*629 net39
*630 net390
*631 net391
*632 net392
*633 net393
*634 net394
*635 net395
*636 net396
*637 net397
*638 net398
*639 net399
*640 net4
*641 net40
*642 net400
*643 net401
*644 net402
*645 net403
*646 net404
*647 net405
*648 net406
*649 net407
*650 net408
*651 net409
*652 net41
*653 net410
*654 net411
*655 net412
*656 net413
*657 net414
*658 net415
*659 net416
*660 net417
*661 net418
*662 net419
*663 net42
*664 net420
*665 net421
*666 net422
*667 net423
*668 net424
*669 net425
*670 net426
*671 net427
*672 net428
*673 net429
*674 net43
*675 net430
*676 net431
*677 net432
*678 net433
*679 net434
*680 net435
*681 net436
*682 net437
*683 net438
*684 net439
*685 net44
*686 net440
*687 net441
*688 net442
*689 net443
*690 net444
*691 net445
*692 net446
*693 net447
*694 net448
*695 net449
*696 net45
*697 net450
*698 net451
*699 net452
*700 net453
*701 net454
*702 net455
*703 net456
*704 net457
*705 net458
*706 net459
*707 net46
*708 net460
*709 net461
*710 net462
*711 net463
*712 net464
*713 net465
*714 net466
*715 net467
*716 net468
*717 net469
*718 net47
*719 net470
*720 net471
*721 net472
*722 net473
*723 net474
*724 net475
*725 net476
*726 net477
*727 net478
*728 net479
*729 net48
*730 net480
*731 net481
*732 net482
*733 net483
*734 net484
*735 net485
*736 net486
*737 net487
*738 net488
*739 net489
*740 net49
*741 net490
*742 net491
*743 net492
*744 net493
*745 net494
*746 net495
*747 net496
*748 net497
*749 net498
*750 net499
*751 net5
*752 net50
*753 net500
*754 net501
*755 net502
*756 net503
*757 net504
*758 net505
*759 net506
*760 net507
*761 net508
*762 net509
*763 net51
*764 net510
*765 net511
*766 net512
*767 net513
*768 net514
*769 net515
*770 net516
*771 net517
*772 net518
*773 net519
*774 net52
*775 net520
*776 net521
*777 net522
*778 net523
*779 net524
*780 net525
*781 net526
*782 net527
*783 net528
*784 net529
*785 net53
*786 net530
*787 net531
*788 net532
*789 net533
*790 net534
*791 net535
*792 net536
*793 net537
*794 net538
*795 net539
*796 net54
*797 net540
*798 net541
*799 net542
*800 net543
*801 net544
*802 net545
*803 net546
*804 net547
*805 net548
*806 net549
*807 net55
*808 net550
*809 net551
*810 net552
*811 net553
*812 net554
*813 net555
*814 net556
*815 net557
*816 net558
*817 net559
*818 net56
*819 net560
*820 net561
*821 net562
*822 net563
*823 net564
*824 net565
*825 net566
*826 net567
*827 net568
*828 net569
*829 net57
*830 net570
*831 net571
*832 net572
*833 net573
*834 net574
*835 net575
*836 net576
*837 net577
*838 net578
*839 net579
*840 net58
*841 net580
*842 net581
*843 net582
*844 net583
*845 net584
*846 net585
*847 net586
*848 net587
*849 net588
*850 net589
*851 net59
*852 net590
*853 net591
*854 net592
*855 net593
*856 net594
*857 net595
*858 net596
*859 net597
*860 net598
*861 net599
*862 net6
*863 net60
*864 net600
*865 net601
*866 net602
*867 net603
*868 net604
*869 net605
*870 net606
*871 net607
*872 net608
*873 net609
*874 net61
*875 net610
*876 net611
*877 net612
*878 net613
*879 net614
*880 net615
*881 net616
*882 net617
*883 net618
*884 net619
*885 net62
*886 net620
*887 net621
*888 net622
*889 net623
*890 net624
*891 net625
*892 net626
*893 net627
*894 net628
*895 net629
*896 net63
*897 net630
*898 net631
*899 net632
*900 net633
*901 net634
*902 net635
*903 net636
*904 net637
*905 net638
*906 net639
*907 net64
*908 net640
*909 net641
*910 net642
*911 net643
*912 net644
*913 net645
*914 net646
*915 net647
*916 net648
*917 net649
*918 net65
*919 net650
*920 net651
*921 net652
*922 net653
*923 net654
*924 net655
*925 net656
*926 net657
*927 net658
*928 net659
*929 net66
*930 net660
*931 net661
*932 net662
*933 net663
*934 net664
*935 net665
*936 net666
*937 net667
*938 net668
*939 net669
*940 net67
*941 net670
*942 net671
*943 net672
*944 net673
*945 net674
*946 net675
*947 net676
*948 net677
*949 net678
*950 net679
*951 net68
*952 net680
*953 net681
*954 net682
*955 net683
*956 net684
*957 net685
*958 net686
*959 net687
*960 net688
*961 net689
*962 net69
*963 net690
*964 net691
*965 net692
*966 net693
*967 net694
*968 net695
*969 net696
*970 net697
*971 net698
*972 net699
*973 net7
*974 net70
*975 net700
*976 net701
*977 net702
*978 net703
*979 net704
*980 net705
*981 net706
*982 net707
*983 net708
*984 net709
*985 net71
*986 net710
*987 net711
*988 net712
*989 net713
*990 net714
*991 net715
*992 net716
*993 net717
*994 net718
*995 net719
*996 net72
*997 net720
*998 net721
*999 net722
*1000 net723
*1001 net724
*1002 net725
*1003 net726
*1004 net727
*1005 net728
*1006 net729
*1007 net73
*1008 net730
*1009 net731
*1010 net732
*1011 net733
*1012 net734
*1013 net735
*1014 net736
*1015 net737
*1016 net738
*1017 net739
*1018 net74
*1019 net740
*1020 net741
*1021 net742
*1022 net743
*1023 net744
*1024 net745
*1025 net746
*1026 net747
*1027 net748
*1028 net749
*1029 net75
*1030 net750
*1031 net751
*1032 net752
*1033 net753
*1034 net754
*1035 net755
*1036 net756
*1037 net757
*1038 net758
*1039 net759
*1040 net76
*1041 net760
*1042 net761
*1043 net762
*1044 net763
*1045 net764
*1046 net765
*1047 net766
*1048 net767
*1049 net768
*1050 net769
*1051 net77
*1052 net770
*1053 net771
*1054 net772
*1055 net773
*1056 net774
*1057 net775
*1058 net776
*1059 net777
*1060 net778
*1061 net779
*1062 net78
*1063 net780
*1064 net781
*1065 net782
*1066 net783
*1067 net784
*1068 net785
*1069 net786
*1070 net787
*1071 net788
*1072 net789
*1073 net79
*1074 net790
*1075 net791
*1076 net792
*1077 net793
*1078 net794
*1079 net795
*1080 net796
*1081 net797
*1082 net798
*1083 net799
*1084 net8
*1085 net80
*1086 net800
*1087 net801
*1088 net802
*1089 net803
*1090 net804
*1091 net805
*1092 net806
*1093 net807
*1094 net808
*1095 net809
*1096 net81
*1097 net810
*1098 net811
*1099 net812
*1100 net813
*1101 net814
*1102 net815
*1103 net816
*1104 net817
*1105 net818
*1106 net819
*1107 net82
*1108 net820
*1109 net821
*1110 net822
*1111 net823
*1112 net824
*1113 net825
*1114 net826
*1115 net827
*1116 net828
*1117 net829
*1118 net83
*1119 net830
*1120 net831
*1121 net832
*1122 net833
*1123 net834
*1124 net835
*1125 net836
*1126 net837
*1127 net838
*1128 net839
*1129 net84
*1130 net840
*1131 net841
*1132 net842
*1133 net843
*1134 net844
*1135 net845
*1136 net846
*1137 net847
*1138 net848
*1139 net849
*1140 net85
*1141 net850
*1142 net851
*1143 net852
*1144 net853
*1145 net854
*1146 net855
*1147 net856
*1148 net857
*1149 net858
*1150 net859
*1151 net86
*1152 net860
*1153 net861
*1154 net862
*1155 net863
*1156 net864
*1157 net865
*1158 net866
*1159 net867
*1160 net868
*1161 net869
*1162 net87
*1163 net870
*1164 net871
*1165 net872
*1166 net873
*1167 net874
*1168 net875
*1169 net876
*1170 net877
*1171 net878
*1172 net879
*1173 net88
*1174 net880
*1175 net881
*1176 net882
*1177 net883
*1178 net884
*1179 net885
*1180 net886
*1181 net887
*1182 net888
*1183 net889
*1184 net89
*1185 net890
*1186 net891
*1187 net892
*1188 net893
*1189 net894
*1190 net895
*1191 net896
*1192 net897
*1193 net898
*1194 net899
*1195 net9
*1196 net90
*1197 net900
*1198 net901
*1199 net902
*1200 net903
*1201 net904
*1202 net905
*1203 net906
*1204 net907
*1205 net908
*1206 net909
*1207 net91
*1208 net910
*1209 net911
*1210 net912
*1211 net913
*1212 net914
*1213 net915
*1214 net916
*1215 net917
*1216 net918
*1217 net919
*1218 net92
*1219 net920
*1220 net921
*1221 net922
*1222 net923
*1223 net924
*1224 net925
*1225 net926
*1226 net927
*1227 net928
*1228 net929
*1229 net93
*1230 net930
*1231 net931
*1232 net932
*1233 net933
*1234 net934
*1235 net935
*1236 net936
*1237 net937
*1238 net938
*1239 net939
*1240 net94
*1241 net940
*1242 net941
*1243 net942
*1244 net943
*1245 net944
*1246 net945
*1247 net946
*1248 net947
*1249 net948
*1250 net949
*1251 net95
*1252 net950
*1253 net951
*1254 net952
*1255 net953
*1256 net954
*1257 net955
*1258 net956
*1259 net957
*1260 net958
*1261 net959
*1262 net96
*1263 net960
*1264 net961
*1265 net962
*1266 net963
*1267 net964
*1268 net965
*1269 net966
*1270 net967
*1271 net968
*1272 net969
*1273 net97
*1274 net970
*1275 net971
*1276 net972
*1277 net973
*1278 net974
*1279 net975
*1280 net976
*1281 net977
*1282 net978
*1283 net979
*1284 net98
*1285 net980
*1286 net981
*1287 net982
*1288 net983
*1289 net984
*1290 net985
*1291 net986
*1292 net987
*1293 net988
*1294 net989
*1295 net99
*1296 net990
*1297 net991
*1298 net992
*1299 ANTENNA_1
*1300 ANTENNA_c101_A0
*1301 ANTENNA_c101_A2
*1302 ANTENNA_c105_A
*1303 ANTENNA_c110_RESET_B
*1304 ANTENNA_c111_B
*1305 ANTENNA_c125_S0
*1306 ANTENNA_c126_C
*1307 ANTENNA_c126_X
*1308 ANTENNA_c127_B
*1309 ANTENNA_c128_A0
*1310 ANTENNA_c128_S0
*1311 ANTENNA_c129_A
*1312 ANTENNA_c129_B
*1313 ANTENNA_c129_X
*1314 ANTENNA_c130_X
*1315 ANTENNA_c131_A
*1316 ANTENNA_c131_C_N
*1317 ANTENNA_c131_D_N
*1318 ANTENNA_c131_X
*1319 ANTENNA_c132_A
*1320 ANTENNA_c132_B
*1321 ANTENNA_c133_A
*1322 ANTENNA_c134_B
*1323 ANTENNA_c135_B
*1324 ANTENNA_c136_A
*1325 ANTENNA_c136_C
*1326 ANTENNA_c137_C
*1327 ANTENNA_c137_X
*1328 ANTENNA_c139_C
*1329 ANTENNA_c139_X
*1330 ANTENNA_c140_A2
*1331 ANTENNA_c140_B1
*1332 ANTENNA_c140_D1
*1333 ANTENNA_c141_C
*1334 ANTENNA_c142_B
*1335 ANTENNA_c142_C
*1336 ANTENNA_c143_X
*1337 ANTENNA_c144_A
*1338 ANTENNA_c144_B
*1339 ANTENNA_c144_C
*1340 ANTENNA_c144_X
*1341 ANTENNA_c145_S1
*1342 ANTENNA_c146_A2
*1343 ANTENNA_c147_C
*1344 ANTENNA_c148_B
*1345 ANTENNA_c149_A
*1346 ANTENNA_c149_B
*1347 ANTENNA_c149_C
*1348 ANTENNA_c150_B
*1349 ANTENNA_c151_B
*1350 ANTENNA_c152_A2
*1351 ANTENNA_c152_A3
*1352 ANTENNA_c152_S0
*1353 ANTENNA_c152_S1
*1354 ANTENNA_c155_D_N
*1355 ANTENNA_c155_X
*1356 ANTENNA_c156_A2
*1357 ANTENNA_c156_B1
*1358 ANTENNA_c156_C1
*1359 ANTENNA_c156_D1
*1360 ANTENNA_c158_S0
*1361 ANTENNA_c158_X
*1362 ANTENNA_c159_A2
*1363 ANTENNA_c159_C1
*1364 ANTENNA_c159_D1
*1365 ANTENNA_c160_B
*1366 ANTENNA_c160_C_N
*1367 ANTENNA_c160_D_N
*1368 ANTENNA_c160_X
*1369 ANTENNA_c161_B
*1370 ANTENNA_c161_D_N
*1371 ANTENNA_c161_X
*1372 ANTENNA_c162_A1
*1373 ANTENNA_c162_S0
*1374 ANTENNA_c163_S0
*1375 ANTENNA_c164_A2
*1376 ANTENNA_c164_C1
*1377 ANTENNA_c164_D1
*1378 ANTENNA_c165_A1
*1379 ANTENNA_c165_D1
*1380 ANTENNA_c165_X
*1381 ANTENNA_c166_A1
*1382 ANTENNA_c167_D
*1383 ANTENNA_c167_Q
*1384 ANTENNA_c167_Q_N
*1385 ANTENNA_c167_SCE
*1386 ANTENNA_c167_SET_B
*1387 ANTENNA_c168_A
*1388 ANTENNA_c168_B
*1389 ANTENNA_c168_C
*1390 ANTENNA_c169_B
*1391 ANTENNA_c170_B
*1392 ANTENNA_c170_C
*1393 ANTENNA_c170_X
*1394 ANTENNA_c171_C
*1395 ANTENNA_c172_B
*1396 ANTENNA_c173_B
*1397 ANTENNA_c173_C
*1398 ANTENNA_c174_C
*1399 ANTENNA_c175_B
*1400 ANTENNA_c177_B
*1401 ANTENNA_c177_C
*1402 ANTENNA_c181_SCE
*1403 ANTENNA_c184_A1
*1404 ANTENNA_c185_D
*1405 ANTENNA_c186_A2
*1406 ANTENNA_c186_S1
*1407 ANTENNA_c187_A0
*1408 ANTENNA_c187_A3
*1409 ANTENNA_c187_S1
*1410 ANTENNA_c188_A2
*1411 ANTENNA_c188_A3
*1412 ANTENNA_c188_S0
*1413 ANTENNA_c188_S1
*1414 ANTENNA_c189_SCD
*1415 ANTENNA_c189_SCE
*1416 ANTENNA_c190_B
*1417 ANTENNA_c190_C
*1418 ANTENNA_c191_B
*1419 ANTENNA_c192_B
*1420 ANTENNA_c193_C
*1421 ANTENNA_c194_B
*1422 ANTENNA_c194_C
*1423 ANTENNA_c196_X
*1424 ANTENNA_c197_B
*1425 ANTENNA_c197_C
*1426 ANTENNA_c198_B
*1427 ANTENNA_c198_C
*1428 ANTENNA_c199_A1
*1429 ANTENNA_c199_A2
*1430 ANTENNA_c199_A3
*1431 ANTENNA_c199_S1
*1432 ANTENNA_c200_SET_B
*1433 ANTENNA_c201_Q
*1434 ANTENNA_c201_RESET_B
*1435 ANTENNA_c201_SCD
*1436 ANTENNA_c202_A0
*1437 ANTENNA_c202_A1
*1438 ANTENNA_c202_A3
*1439 ANTENNA_c202_S0
*1440 ANTENNA_c203_SCD
*1441 ANTENNA_c204_D_N
*1442 ANTENNA_c205_Q
*1443 ANTENNA_c206_A2
*1444 ANTENNA_c206_A3
*1445 ANTENNA_c207_A1
*1446 ANTENNA_c207_A2
*1447 ANTENNA_c207_S1
*1448 ANTENNA_c208_S0
*1449 ANTENNA_c209_A1
*1450 ANTENNA_c209_S0
*1451 ANTENNA_c210_A
*1452 ANTENNA_c210_C
*1453 ANTENNA_c213_C
*1454 ANTENNA_c214_A
*1455 ANTENNA_c214_B
*1456 ANTENNA_c214_D_N
*1457 ANTENNA_c215_B
*1458 ANTENNA_c217_SCD
*1459 ANTENNA_c218_C_N
*1460 ANTENNA_c219_Q
*1461 ANTENNA_c220_A2
*1462 ANTENNA_c220_X
*1463 ANTENNA_c221_SCD
*1464 ANTENNA_c222_A2
*1465 ANTENNA_c222_B1
*1466 ANTENNA_c223_SCE
*1467 ANTENNA_c226_X
*1468 ANTENNA_c227_C
*1469 ANTENNA_c228_A3
*1470 ANTENNA_c229_S0
*1471 ANTENNA_c230_A1
*1472 ANTENNA_c230_A2
*1473 ANTENNA_c230_A3
*1474 ANTENNA_c231_A
*1475 ANTENNA_c232_A
*1476 ANTENNA_c232_B
*1477 ANTENNA_c232_D_N
*1478 ANTENNA_c233_B1
*1479 ANTENNA_c234_A
*1480 ANTENNA_c234_B
*1481 ANTENNA_c234_C
*1482 ANTENNA_c235_A1
*1483 ANTENNA_c235_C1
*1484 ANTENNA_c236_C
*1485 ANTENNA_c237_C_N
*1486 ANTENNA_c238_SCE
*1487 ANTENNA_c239_A1
*1488 ANTENNA_c239_A2
*1489 ANTENNA_c240_RESET_B
*1490 ANTENNA_c242_SCE
*1491 ANTENNA_c242_SET_B
*1492 ANTENNA_c244_S1
*1493 ANTENNA_c245_D
*1494 ANTENNA_c247_A2
*1495 ANTENNA_c247_S0
*1496 ANTENNA_c251_S1
*1497 ANTENNA_c252_X
*1498 ANTENNA_c253_X
*1499 ANTENNA_c254_A
*1500 ANTENNA_c254_B
*1501 ANTENNA_c255_B
*1502 ANTENNA_c256_A
*1503 ANTENNA_c256_X
*1504 ANTENNA_c257_B
*1505 ANTENNA_c258_A
*1506 ANTENNA_c259_C
*1507 ANTENNA_c260_D_N
*1508 ANTENNA_c261_X
*1509 ANTENNA_c262_B
*1510 ANTENNA_c263_B1
*1511 ANTENNA_c265_A3
*1512 ANTENNA_c265_X
*1513 ANTENNA_c266_C
*1514 ANTENNA_c267_A
*1515 ANTENNA_c268_S0
*1516 ANTENNA_c268_S1
*1517 ANTENNA_c268_X
*1518 ANTENNA_c269_Q
*1519 ANTENNA_c269_SCE
*1520 ANTENNA_c270_C
*1521 ANTENNA_c271_A1
*1522 ANTENNA_c271_S0
*1523 ANTENNA_c271_S1
*1524 ANTENNA_c271_X
*1525 ANTENNA_c272_A2
*1526 ANTENNA_c272_A3
*1527 ANTENNA_c272_S1
*1528 ANTENNA_c273_B
*1529 ANTENNA_c274_A
*1530 ANTENNA_c274_B
*1531 ANTENNA_c275_B
*1532 ANTENNA_c276_A
*1533 ANTENNA_c276_B
*1534 ANTENNA_c278_X
*1535 ANTENNA_c279_B
*1536 ANTENNA_c280_A2
*1537 ANTENNA_c280_A3
*1538 ANTENNA_c281_Q
*1539 ANTENNA_c282_X
*1540 ANTENNA_c283_RESET_B
*1541 ANTENNA_c284_B
*1542 ANTENNA_c285_C
*1543 ANTENNA_c285_X
*1544 ANTENNA_c286_X
*1545 ANTENNA_c287_Q
*1546 ANTENNA_c287_RESET_B
*1547 ANTENNA_c288_RESET_B
*1548 ANTENNA_c288_SCE
*1549 ANTENNA_c288_SET_B
*1550 ANTENNA_c289_A
*1551 ANTENNA_c290_B1
*1552 ANTENNA_c290_D1
*1553 ANTENNA_c290_X
*1554 ANTENNA_c291_D
*1555 ANTENNA_c291_Q
*1556 ANTENNA_c291_Q_N
*1557 ANTENNA_c291_RESET_B
*1558 ANTENNA_c291_SET_B
*1559 ANTENNA_c292_A1
*1560 ANTENNA_c292_A2
*1561 ANTENNA_c292_A3
*1562 ANTENNA_c292_S1
*1563 ANTENNA_c293_A1
*1564 ANTENNA_c293_S1
*1565 ANTENNA_c293_X
*1566 ANTENNA_c294_B
*1567 ANTENNA_c295_RESET_B
*1568 ANTENNA_c295_SET_B
*1569 ANTENNA_c296_C
*1570 ANTENNA_c298_B
*1571 ANTENNA_c298_C
*1572 ANTENNA_c299_B1
*1573 ANTENNA_c299_C1
*1574 ANTENNA_c300_SCE
*1575 ANTENNA_c300_SET_B
*1576 ANTENNA_c301_SET_B
*1577 ANTENNA_c302_X
*1578 ANTENNA_c304_C
*1579 ANTENNA_c305_SCD
*1580 ANTENNA_c305_SCE
*1581 ANTENNA_c306_SCD
*1582 ANTENNA_c306_SCE
*1583 ANTENNA_c307_SCE
*1584 ANTENNA_c308_A2
*1585 ANTENNA_c308_B1
*1586 ANTENNA_c308_C1
*1587 ANTENNA_c308_D1
*1588 ANTENNA_c310_RESET_B
*1589 ANTENNA_c310_SET_B
*1590 ANTENNA_c311_A1
*1591 ANTENNA_c311_A3
*1592 ANTENNA_c312_SCD
*1593 ANTENNA_c314_A3
*1594 ANTENNA_c314_X
*1595 ANTENNA_c315_B
*1596 ANTENNA_c316_SCD
*1597 ANTENNA_c316_SCE
*1598 ANTENNA_c317_C
*1599 ANTENNA_c318_A1
*1600 ANTENNA_c318_A2
*1601 ANTENNA_c318_S1
*1602 ANTENNA_c319_SCD
*1603 ANTENNA_c319_SCE
*1604 ANTENNA_c320_B
*1605 ANTENNA_c321_SCE
*1606 ANTENNA_c322_A
*1607 ANTENNA_c323_B
*1608 ANTENNA_c323_C
*1609 ANTENNA_c325_C1
*1610 ANTENNA_c325_D1
*1611 ANTENNA_c326_B1
*1612 ANTENNA_c327_B
*1613 ANTENNA_c328_A0
*1614 ANTENNA_c328_A1
*1615 ANTENNA_c329_A2
*1616 ANTENNA_c329_X
*1617 ANTENNA_c330_A1
*1618 ANTENNA_c330_A3
*1619 ANTENNA_c331_B1
*1620 ANTENNA_c332_A2
*1621 ANTENNA_c335_A2
*1622 ANTENNA_c335_A3
*1623 ANTENNA_c335_S0
*1624 ANTENNA_c336_A
*1625 ANTENNA_c336_C
*1626 ANTENNA_c337_B
*1627 ANTENNA_c337_X
*1628 ANTENNA_c339_B
*1629 ANTENNA_c339_C
*1630 ANTENNA_c341_A
*1631 ANTENNA_c341_B
*1632 ANTENNA_c342_SET_B
*1633 ANTENNA_c343_A1
*1634 ANTENNA_c343_A2
*1635 ANTENNA_c343_S0
*1636 ANTENNA_c344_C
*1637 ANTENNA_c346_D
*1638 ANTENNA_c347_A0
*1639 ANTENNA_c347_A1
*1640 ANTENNA_c347_A2
*1641 ANTENNA_c347_A3
*1642 ANTENNA_c347_S0
*1643 ANTENNA_c347_X
*1644 ANTENNA_c348_S0
*1645 ANTENNA_c348_S1
*1646 ANTENNA_c348_X
*1647 ANTENNA_c349_A
*1648 ANTENNA_c349_B
*1649 ANTENNA_c350_X
*1650 ANTENNA_c351_A
*1651 ANTENNA_c351_B
*1652 ANTENNA_c352_D_N
*1653 ANTENNA_c352_X
*1654 ANTENNA_c353_A1
*1655 ANTENNA_c353_A2
*1656 ANTENNA_c353_S0
*1657 ANTENNA_c354_RESET_B
*1658 ANTENNA_c354_SET_B
*1659 ANTENNA_c355_A2
*1660 ANTENNA_c355_S0
*1661 ANTENNA_c372_A0
*1662 ANTENNA_c372_A1
*1663 ANTENNA_c372_A3
*1664 ANTENNA_c372_S1
*1665 ANTENNA_c373_S0
*1666 ANTENNA_c375_A3
*1667 ANTENNA_c377_A0
*1668 ANTENNA_c377_A1
*1669 ANTENNA_c378_X
*1670 ANTENNA_c379_A1
*1671 ANTENNA_c379_A2
*1672 ANTENNA_c379_C1
*1673 ANTENNA_c379_X
*1674 ANTENNA_c380_B
*1675 ANTENNA_c381_B
*1676 ANTENNA_c381_X
*1677 ANTENNA_c382_A
*1678 ANTENNA_c383_RESET_B
*1679 ANTENNA_c383_SET_B
*1680 ANTENNA_c384_Q
*1681 ANTENNA_c385_B
*1682 ANTENNA_c386_A
*1683 ANTENNA_c386_X
*1684 ANTENNA_c387_A
*1685 ANTENNA_c387_B
*1686 ANTENNA_c388_SCD
*1687 ANTENNA_c388_SCE
*1688 ANTENNA_c389_A
*1689 ANTENNA_c389_B
*1690 ANTENNA_c390_SCD
*1691 ANTENNA_c390_SCE
*1692 ANTENNA_c392_SCD
*1693 ANTENNA_c392_SCE
*1694 ANTENNA_c393_A2
*1695 ANTENNA_c393_A3
*1696 ANTENNA_c393_S0
*1697 ANTENNA_c393_S1
*1698 ANTENNA_c395_A3
*1699 ANTENNA_c396_D
*1700 ANTENNA_c397_A3
*1701 ANTENNA_c397_S0
*1702 ANTENNA_c398_A3
*1703 ANTENNA_c399_A
*1704 ANTENNA_c399_B
*1705 ANTENNA_c400_D
*1706 ANTENNA_c400_SET_B
*1707 ANTENNA_c401_B
*1708 ANTENNA_c402_Q
*1709 ANTENNA_c402_RESET_B
*1710 ANTENNA_c402_SCD
*1711 ANTENNA_c403_SCE
*1712 ANTENNA_c404_A0
*1713 ANTENNA_c404_A3
*1714 ANTENNA_c404_S0
*1715 ANTENNA_c404_S1
*1716 ANTENNA_c405_B
*1717 ANTENNA_c406_A1
*1718 ANTENNA_c406_A3
*1719 ANTENNA_c407_SCE
*1720 ANTENNA_c410_A
*1721 ANTENNA_c410_C
*1722 ANTENNA_c410_X
*1723 ANTENNA_c412_SET_B
*1724 ANTENNA_c413_A
*1725 ANTENNA_c413_B
*1726 ANTENNA_c414_B
*1727 ANTENNA_c414_D_N
*1728 ANTENNA_c415_A1
*1729 ANTENNA_c415_A2
*1730 ANTENNA_c415_S1
*1731 ANTENNA_c418_X
*1732 ANTENNA_c419_A0
*1733 ANTENNA_c419_A2
*1734 ANTENNA_c419_A3
*1735 ANTENNA_c420_A
*1736 ANTENNA_c420_X
*1737 ANTENNA_c421_A
*1738 ANTENNA_c421_B
*1739 ANTENNA_c421_C
*1740 ANTENNA_c422_C
*1741 ANTENNA_c422_X
*1742 ANTENNA_c423_SCD
*1743 ANTENNA_c423_SCE
*1744 ANTENNA_c424_A1
*1745 ANTENNA_c424_A2
*1746 ANTENNA_c424_S0
*1747 ANTENNA_c424_S1
*1748 ANTENNA_c425_D
*1749 ANTENNA_c425_RESET_B
*1750 ANTENNA_c426_D
*1751 ANTENNA_c426_Q
*1752 ANTENNA_c426_SCD
*1753 ANTENNA_c426_SCE
*1754 ANTENNA_c426_SET_B
*1755 ANTENNA_c427_A
*1756 ANTENNA_c427_B
*1757 ANTENNA_c428_D
*1758 ANTENNA_c428_Q
*1759 ANTENNA_c428_RESET_B
*1760 ANTENNA_c428_SET_B
*1761 ANTENNA_c429_D
*1762 ANTENNA_c429_SCE
*1763 ANTENNA_c430_B
*1764 ANTENNA_c431_B1
*1765 ANTENNA_c431_X
*1766 ANTENNA_c432_B1
*1767 ANTENNA_c432_C1
*1768 ANTENNA_c432_D1
*1769 ANTENNA_c432_X
*1770 ANTENNA_c433_D_N
*1771 ANTENNA_c433_X
*1772 ANTENNA_c434_A1
*1773 ANTENNA_c434_A2
*1774 ANTENNA_c434_B1
*1775 ANTENNA_c434_C1
*1776 ANTENNA_c435_A2
*1777 ANTENNA_c435_A3
*1778 ANTENNA_c435_S0
*1779 ANTENNA_c436_A1
*1780 ANTENNA_c436_A2
*1781 ANTENNA_c437_A2
*1782 ANTENNA_c437_A3
*1783 ANTENNA_c438_D
*1784 ANTENNA_c438_Q
*1785 ANTENNA_c438_SCE
*1786 ANTENNA_c438_SET_B
*1787 ANTENNA_c439_A0
*1788 ANTENNA_c439_A1
*1789 ANTENNA_c439_A3
*1790 ANTENNA_c440_A0
*1791 ANTENNA_c440_A1
*1792 ANTENNA_c440_A2
*1793 ANTENNA_c440_A3
*1794 ANTENNA_c441_D
*1795 ANTENNA_c441_RESET_B
*1796 ANTENNA_c441_SET_B
*1797 ANTENNA_c442_A
*1798 ANTENNA_c442_X
*1799 ANTENNA_c443_A
*1800 ANTENNA_c443_B
*1801 ANTENNA_c443_C
*1802 ANTENNA_c444_A
*1803 ANTENNA_c444_B
*1804 ANTENNA_c444_C
*1805 ANTENNA_c444_X
*1806 ANTENNA_c445_A0
*1807 ANTENNA_c445_A1
*1808 ANTENNA_c445_A2
*1809 ANTENNA_c445_A3
*1810 ANTENNA_c445_S0
*1811 ANTENNA_c446_D
*1812 ANTENNA_c447_A
*1813 ANTENNA_c448_A
*1814 ANTENNA_c448_B
*1815 ANTENNA_c448_C_N
*1816 ANTENNA_c449_SCE
*1817 ANTENNA_c450_C_N
*1818 ANTENNA_c450_D_N
*1819 ANTENNA_c451_RESET_B
*1820 ANTENNA_c451_SET_B
*1821 ANTENNA_c452_A0
*1822 ANTENNA_c452_A1
*1823 ANTENNA_c452_A2
*1824 ANTENNA_c452_A3
*1825 ANTENNA_c452_S1
*1826 ANTENNA_c453_A1
*1827 ANTENNA_c453_B1
*1828 ANTENNA_c453_C1
*1829 ANTENNA_c454_A1
*1830 ANTENNA_c454_A3
*1831 ANTENNA_c455_B1
*1832 ANTENNA_c456_D
*1833 ANTENNA_c456_SCE
*1834 ANTENNA_c457_A1
*1835 ANTENNA_c459_C
*1836 ANTENNA_c460_A1