*SPEF "ieee 1481-1999"
*DESIGN "netlist_0"
*DATE "13:41:49 Friday August 16, 2024"
*VENDOR "The OpenROAD Project"
*PROGRAM "OpenROAD"
*VERSION "d423155d69de7f683a23f6916ead418a615ad4ad"
*DESIGN_FLOW "NAME_SCOPE LOCAL" "PIN_CAP NONE"
*DIVIDER /
*DELIMITER :
*BUS_DELIMITER []
*T_UNIT 1 NS
*C_UNIT 1 PF
*R_UNIT 1 OHM
*L_UNIT 1 HENRY

*NAME_MAP
*3 clk
*4 in0
*5 in1
*6 in10
*7 in11
*8 in12
*9 in13
*10 in14
*11 in15
*12 in16
*13 in17
*14 in18
*15 in19
*16 in2
*17 in20
*18 in21
*19 in22
*20 in23
*21 in24
*22 in25
*23 in26
*24 in27
*25 in28
*26 in29
*27 in3
*28 in30
*29 in31
*30 in32
*31 in33
*32 in34
*33 in35
*34 in36
*35 in37
*36 in38
*37 in39
*38 in4
*39 in40
*40 in41
*41 in42
*42 in43
*43 in44
*44 in45
*45 in46
*46 in47
*47 in48
*48 in49
*49 in5
*50 in50
*51 in51
*52 in52
*53 in53
*54 in54
*55 in55
*56 in56
*57 in57
*58 in58
*59 in59
*60 in6
*61 in60
*62 in61
*63 in62
*64 in63
*65 in64
*66 in65
*67 in66
*68 in67
*69 in68
*70 in69
*71 in7
*72 in70
*73 in71
*74 in72
*75 in73
*76 in74
*77 in75
*78 in76
*79 in77
*80 in78
*81 in79
*82 in8
*83 in80
*84 in81
*85 in82
*86 in83
*87 in84
*88 in85
*89 in86
*90 in87
*91 in88
*92 in89
*93 in9
*94 in90
*95 in91
*96 in92
*97 in93
*98 in94
*99 in95
*100 in96
*101 in97
*102 in98
*103 in99
*104 out0
*105 out1
*106 out10
*107 out11
*108 out12
*109 out13
*110 out14
*111 out15
*112 out16
*113 out17
*114 out18
*115 out19
*116 out2
*117 out20
*118 out21
*119 out22
*120 out23
*121 out24
*122 out25
*123 out26
*124 out27
*125 out28
*126 out29
*127 out3
*128 out30
*129 out31
*130 out32
*131 out33
*132 out34
*133 out35
*134 out36
*135 out37
*136 out38
*137 out39
*138 out4
*139 out40
*140 out41
*141 out42
*142 out43
*143 out44
*144 out45
*145 out46
*146 out47
*147 out48
*148 out49
*149 out5
*150 out50
*151 out51
*152 out52
*153 out53
*154 out54
*155 out55
*156 out56
*157 out57
*158 out58
*159 out59
*160 out6
*161 out60
*162 out61
*163 out62
*164 out63
*165 out64
*166 out65
*167 out66
*168 out67
*169 out68
*170 out69
*171 out7
*172 out70
*173 out71
*174 out72
*175 out73
*176 out74
*177 out75
*178 out76
*179 out77
*180 out78
*181 out79
*182 out8
*183 out80
*184 out81
*185 out82
*186 out83
*187 out84
*188 out85
*189 out86
*190 out87
*191 out88
*192 out89
*193 out9
*194 out90
*195 out91
*196 out92
*197 out93
*198 out94
*199 out95
*200 out96
*201 out97
*202 out98
*203 out99
*204 rst
*205 clknet_0_clk
*206 clknet_0_net105
*207 clknet_0_net107
*208 clknet_0_net109
*209 clknet_0_net203
*210 clknet_0_net205
*211 clknet_0_net216
*212 clknet_0_net246
*213 clknet_0_net250
*214 clknet_0_net302
*215 clknet_0_net310
*216 clknet_0_net316
*217 clknet_0_net318
*218 clknet_0_net319
*219 clknet_0_net341
*220 clknet_0_net342
*221 clknet_0_net343
*222 clknet_0_net347
*223 clknet_0_net348
*224 clknet_0_net349
*225 clknet_0_net352
*226 clknet_0_net353
*227 clknet_0_net357
*228 clknet_0_net358
*229 clknet_0_net366
*230 clknet_0_net367
*231 clknet_0_net370
*232 clknet_0_net372
*233 clknet_0_net375
*234 clknet_0_net377
*235 clknet_0_net380
*236 clknet_0_net403
*237 clknet_0_net407
*238 clknet_0_net429
*239 clknet_0_net443
*240 clknet_0_net444
*241 clknet_0_net446
*242 clknet_0_net447
*243 clknet_0_net451
*244 clknet_0_net455
*245 clknet_0_net456
*246 clknet_0_net457
*247 clknet_0_net458
*248 clknet_0_net463
*249 clknet_0_net469
*250 clknet_0_net481
*251 clknet_0_net489
*252 clknet_0_net492
*253 clknet_0_net495
*254 clknet_0_net499
*255 clknet_0_net502
*256 clknet_0_net509
*257 clknet_0_net521
*258 clknet_0_net523
*259 clknet_0_net527
*260 clknet_0_net528
*261 clknet_0_net643
*262 clknet_0_net644
*263 clknet_0_net656
*264 clknet_0_net657
*265 clknet_0_net658
*266 clknet_0_net673
*267 clknet_0_net674
*268 clknet_0_net675
*269 clknet_0_net693
*270 clknet_0_net694
*271 clknet_0_net695
*272 clknet_0_net713
*273 clknet_0_net714
*274 clknet_0_net715
*275 clknet_0_net732
*276 clknet_0_net733
*277 clknet_0_net734
*278 clknet_0_net868
*279 clknet_0_net877
*280 clknet_0_net882
*281 clknet_0_net887
*282 clknet_0_net907
*283 clknet_0_net912
*284 clknet_0_net913
*285 clknet_0_net921
*286 clknet_1_0__leaf_net105
*287 clknet_1_0__leaf_net107
*288 clknet_1_0__leaf_net109
*289 clknet_1_0__leaf_net203
*290 clknet_1_0__leaf_net205
*291 clknet_1_0__leaf_net216
*292 clknet_1_0__leaf_net246
*293 clknet_1_0__leaf_net250
*294 clknet_1_0__leaf_net302
*295 clknet_1_0__leaf_net310
*296 clknet_1_0__leaf_net316
*297 clknet_1_0__leaf_net318
*298 clknet_1_0__leaf_net319
*299 clknet_1_0__leaf_net341
*300 clknet_1_0__leaf_net342
*301 clknet_1_0__leaf_net343
*302 clknet_1_0__leaf_net347
*303 clknet_1_0__leaf_net348
*304 clknet_1_0__leaf_net349
*305 clknet_1_0__leaf_net352
*306 clknet_1_0__leaf_net353
*307 clknet_1_0__leaf_net357
*308 clknet_1_0__leaf_net358
*309 clknet_1_0__leaf_net366
*310 clknet_1_0__leaf_net367
*311 clknet_1_0__leaf_net370
*312 clknet_1_0__leaf_net372
*313 clknet_1_0__leaf_net375
*314 clknet_1_0__leaf_net377
*315 clknet_1_0__leaf_net380
*316 clknet_1_0__leaf_net403
*317 clknet_1_0__leaf_net407
*318 clknet_1_0__leaf_net429
*319 clknet_1_0__leaf_net443
*320 clknet_1_0__leaf_net444
*321 clknet_1_0__leaf_net446
*322 clknet_1_0__leaf_net447
*323 clknet_1_0__leaf_net451
*324 clknet_1_0__leaf_net455
*325 clknet_1_0__leaf_net456
*326 clknet_1_0__leaf_net457
*327 clknet_1_0__leaf_net458
*328 clknet_1_0__leaf_net463
*329 clknet_1_0__leaf_net469
*330 clknet_1_0__leaf_net481
*331 clknet_1_0__leaf_net489
*332 clknet_1_0__leaf_net492
*333 clknet_1_0__leaf_net495
*334 clknet_1_0__leaf_net499
*335 clknet_1_0__leaf_net502
*336 clknet_1_0__leaf_net509
*337 clknet_1_0__leaf_net521
*338 clknet_1_0__leaf_net523
*339 clknet_1_0__leaf_net527
*340 clknet_1_0__leaf_net528
*341 clknet_1_0__leaf_net643
*342 clknet_1_0__leaf_net644
*343 clknet_1_0__leaf_net656
*344 clknet_1_0__leaf_net657
*345 clknet_1_0__leaf_net658
*346 clknet_1_0__leaf_net673
*347 clknet_1_0__leaf_net674
*348 clknet_1_0__leaf_net675
*349 clknet_1_0__leaf_net693
*350 clknet_1_0__leaf_net694
*351 clknet_1_0__leaf_net695
*352 clknet_1_0__leaf_net713
*353 clknet_1_0__leaf_net714
*354 clknet_1_0__leaf_net715
*355 clknet_1_0__leaf_net732
*356 clknet_1_0__leaf_net733
*357 clknet_1_0__leaf_net734
*358 clknet_1_0__leaf_net868
*359 clknet_1_0__leaf_net877
*360 clknet_1_0__leaf_net882
*361 clknet_1_0__leaf_net887
*362 clknet_1_0__leaf_net907
*363 clknet_1_0__leaf_net912
*364 clknet_1_0__leaf_net913
*365 clknet_1_0__leaf_net921
*366 clknet_1_1__leaf_net105
*367 clknet_1_1__leaf_net107
*368 clknet_1_1__leaf_net109
*369 clknet_1_1__leaf_net203
*370 clknet_1_1__leaf_net205
*371 clknet_1_1__leaf_net216
*372 clknet_1_1__leaf_net246
*373 clknet_1_1__leaf_net250
*374 clknet_1_1__leaf_net302
*375 clknet_1_1__leaf_net310
*376 clknet_1_1__leaf_net316
*377 clknet_1_1__leaf_net318
*378 clknet_1_1__leaf_net319
*379 clknet_1_1__leaf_net341
*380 clknet_1_1__leaf_net342
*381 clknet_1_1__leaf_net343
*382 clknet_1_1__leaf_net347
*383 clknet_1_1__leaf_net348
*384 clknet_1_1__leaf_net349
*385 clknet_1_1__leaf_net352
*386 clknet_1_1__leaf_net353
*387 clknet_1_1__leaf_net357
*388 clknet_1_1__leaf_net358
*389 clknet_1_1__leaf_net366
*390 clknet_1_1__leaf_net367
*391 clknet_1_1__leaf_net370
*392 clknet_1_1__leaf_net372
*393 clknet_1_1__leaf_net375
*394 clknet_1_1__leaf_net377
*395 clknet_1_1__leaf_net380
*396 clknet_1_1__leaf_net403
*397 clknet_1_1__leaf_net407
*398 clknet_1_1__leaf_net429
*399 clknet_1_1__leaf_net443
*400 clknet_1_1__leaf_net444
*401 clknet_1_1__leaf_net446
*402 clknet_1_1__leaf_net447
*403 clknet_1_1__leaf_net451
*404 clknet_1_1__leaf_net455
*405 clknet_1_1__leaf_net456
*406 clknet_1_1__leaf_net457
*407 clknet_1_1__leaf_net458
*408 clknet_1_1__leaf_net463
*409 clknet_1_1__leaf_net469
*410 clknet_1_1__leaf_net481
*411 clknet_1_1__leaf_net489
*412 clknet_1_1__leaf_net492
*413 clknet_1_1__leaf_net495
*414 clknet_1_1__leaf_net499
*415 clknet_1_1__leaf_net502
*416 clknet_1_1__leaf_net509
*417 clknet_1_1__leaf_net521
*418 clknet_1_1__leaf_net523
*419 clknet_1_1__leaf_net527
*420 clknet_1_1__leaf_net528
*421 clknet_1_1__leaf_net643
*422 clknet_1_1__leaf_net644
*423 clknet_1_1__leaf_net656
*424 clknet_1_1__leaf_net657
*425 clknet_1_1__leaf_net658
*426 clknet_1_1__leaf_net673
*427 clknet_1_1__leaf_net674
*428 clknet_1_1__leaf_net675
*429 clknet_1_1__leaf_net693
*430 clknet_1_1__leaf_net694
*431 clknet_1_1__leaf_net695
*432 clknet_1_1__leaf_net713
*433 clknet_1_1__leaf_net714
*434 clknet_1_1__leaf_net715
*435 clknet_1_1__leaf_net732
*436 clknet_1_1__leaf_net733
*437 clknet_1_1__leaf_net734
*438 clknet_1_1__leaf_net868
*439 clknet_1_1__leaf_net877
*440 clknet_1_1__leaf_net882
*441 clknet_1_1__leaf_net887
*442 clknet_1_1__leaf_net907
*443 clknet_1_1__leaf_net912
*444 clknet_1_1__leaf_net913
*445 clknet_1_1__leaf_net921
*446 clknet_4_0_0_clk
*447 clknet_4_10_0_clk
*448 clknet_4_11_0_clk
*449 clknet_4_12_0_clk
*450 clknet_4_13_0_clk
*451 clknet_4_14_0_clk
*452 clknet_4_15_0_clk
*453 clknet_4_1_0_clk
*454 clknet_4_2_0_clk
*455 clknet_4_3_0_clk
*456 clknet_4_4_0_clk
*457 clknet_4_5_0_clk
*458 clknet_4_6_0_clk
*459 clknet_4_7_0_clk
*460 clknet_4_8_0_clk
*461 clknet_4_9_0_clk
*462 net0
*463 net1
*464 net10
*465 net100
*466 net1000
*467 net1001
*468 net1002
*469 net1003
*470 net1004
*471 net1005
*472 net1006
*473 net1007
*474 net1008
*475 net1009
*476 net101
*477 net1010
*478 net1011
*479 net1012
*480 net1013
*481 net1014
*482 net1015
*483 net1016
*484 net1017
*485 net1018
*486 net1019
*487 net102
*488 net1020
*489 net1021
*490 net1022
*491 net1023
*492 net1024
*493 net1025
*494 net1026
*495 net1027
*496 net1028
*497 net1029
*498 net103
*499 net1030
*500 net1031
*501 net1032
*502 net1033
*503 net1034
*504 net1035
*505 net1036
*506 net1037
*507 net1038
*508 net1039
*509 net104
*510 net1040
*511 net1041
*512 net1042
*513 net1043
*514 net1044
*515 net1045
*516 net1046
*517 net1047
*518 net1048
*519 net1049
*520 net105
*521 net1050
*522 net1051
*523 net1052
*524 net1053
*525 net1054
*526 net1055
*527 net1056
*528 net1057
*529 net1058
*530 net1059
*531 net106
*532 net1060
*533 net1061
*534 net1062
*535 net1063
*536 net1064
*537 net1065
*538 net1066
*539 net1067
*540 net1068
*541 net1069
*542 net107
*543 net1070
*544 net1071
*545 net1072
*546 net1073
*547 net1074
*548 net1075
*549 net1076
*550 net1077
*551 net1078
*552 net1079
*553 net108
*554 net1080
*555 net1081
*556 net1082
*557 net1083
*558 net1084
*559 net1085
*560 net1086
*561 net1087
*562 net1088
*563 net1089
*564 net109
*565 net1090
*566 net1091
*567 net1092
*568 net1093
*569 net1094
*570 net1095
*571 net1096
*572 net1097
*573 net1098
*574 net1099
*575 net11
*576 net110
*577 net1100
*578 net1101
*579 net1102
*580 net1103
*581 net1104
*582 net1105
*583 net1106
*584 net1107
*585 net1108
*586 net1109
*587 net111
*588 net1110
*589 net1111
*590 net1112
*591 net1113
*592 net1114
*593 net1115
*594 net1116
*595 net1117
*596 net1118
*597 net1119
*598 net112
*599 net1120
*600 net1121
*601 net1122
*602 net1123
*603 net1124
*604 net1125
*605 net1126
*606 net1127
*607 net1128
*608 net1129
*609 net113
*610 net1130
*611 net1131
*612 net1132
*613 net1133
*614 net1134
*615 net1135
*616 net1136
*617 net1137
*618 net1138
*619 net1139
*620 net114
*621 net1140
*622 net1141
*623 net1142
*624 net1143
*625 net1144
*626 net1145
*627 net1146
*628 net1147
*629 net1148
*630 net1149
*631 net115
*632 net1150
*633 net1151
*634 net1152
*635 net1153
*636 net1154
*637 net1155
*638 net1156
*639 net1157
*640 net1158
*641 net1159
*642 net116
*643 net1160
*644 net1161
*645 net1162
*646 net1163
*647 net1164
*648 net117
*649 net118
*650 net119
*651 net12
*652 net120
*653 net121
*654 net122
*655 net123
*656 net124
*657 net125
*658 net126
*659 net127
*660 net128
*661 net129
*662 net13
*663 net130
*664 net131
*665 net132
*666 net133
*667 net134
*668 net135
*669 net136
*670 net137
*671 net138
*672 net139
*673 net14
*674 net140
*675 net141
*676 net142
*677 net143
*678 net144
*679 net145
*680 net146
*681 net147
*682 net148
*683 net149
*684 net15
*685 net150
*686 net151
*687 net152
*688 net153
*689 net154
*690 net155
*691 net156
*692 net157
*693 net158
*694 net159
*695 net16
*696 net160
*697 net161
*698 net162
*699 net163
*700 net164
*701 net165
*702 net166
*703 net167
*704 net168
*705 net169
*706 net17
*707 net170
*708 net171
*709 net172
*710 net173
*711 net174
*712 net175
*713 net176
*714 net177
*715 net178
*716 net179
*717 net18
*718 net180
*719 net181
*720 net182
*721 net183
*722 net184
*723 net185
*724 net186
*725 net187
*726 net188
*727 net189
*728 net19
*729 net190
*730 net191
*731 net192
*732 net193
*733 net194
*734 net195
*735 net196
*736 net197
*737 net198
*738 net199
*739 net2
*740 net20
*741 net200
*742 net201
*743 net202
*744 net203
*745 net204
*746 net205
*747 net206
*748 net207
*749 net208
*750 net209
*751 net21
*752 net210
*753 net211
*754 net212
*755 net213
*756 net214
*757 net215
*758 net216
*759 net217
*760 net218
*761 net219
*762 net22
*763 net220
*764 net221
*765 net222
*766 net223
*767 net224
*768 net225
*769 net226
*770 net227
*771 net228
*772 net229
*773 net23
*774 net230
*775 net231
*776 net232
*777 net233
*778 net234
*779 net235
*780 net236
*781 net237
*782 net238
*783 net239
*784 net24
*785 net240
*786 net241
*787 net242
*788 net243
*789 net244
*790 net245
*791 net246
*792 net247
*793 net248
*794 net249
*795 net25
*796 net250
*797 net251
*798 net252
*799 net253
*800 net254
*801 net255
*802 net256
*803 net257
*804 net258
*805 net259
*806 net26
*807 net260
*808 net261
*809 net262
*810 net263
*811 net264
*812 net265
*813 net266
*814 net267
*815 net268
*816 net269
*817 net27
*818 net270
*819 net271
*820 net272
*821 net273
*822 net274
*823 net275
*824 net276
*825 net277
*826 net278
*827 net279
*828 net28
*829 net280
*830 net281
*831 net282
*832 net283
*833 net284
*834 net285
*835 net286
*836 net287
*837 net288
*838 net289
*839 net29
*840 net290
*841 net291
*842 net292
*843 net293
*844 net294
*845 net295
*846 net296
*847 net297
*848 net298
*849 net299
*850 net3
*851 net30
*852 net300
*853 net301
*854 net302
*855 net303
*856 net304
*857 net305
*858 net306
*859 net307
*860 net308
*861 net309
*862 net31
*863 net310
*864 net311
*865 net312
*866 net313
*867 net314
*868 net315
*869 net316
*870 net317
*871 net318
*872 net319
*873 net32
*874 net320
*875 net321
*876 net322
*877 net323
*878 net324
*879 net325
*880 net326
*881 net327
*882 net328
*883 net329
*884 net33
*885 net330
*886 net331
*887 net332
*888 net333
*889 net334
*890 net335
*891 net336
*892 net337
*893 net338
*894 net339
*895 net34
*896 net340
*897 net341
*898 net342
*899 net343
*900 net344
*901 net345
*902 net346
*903 net347
*904 net348
*905 net349
*906 net35
*907 net350
*908 net351
*909 net352
*910 net353
*911 net354
*912 net355
*913 net356
*914 net357
*915 net358
*916 net359
*917 net36
*918 net360
*919 net361
*920 net362
*921 net363
*922 net364
*923 net365
*924 net366
*925 net367
*926 net368
*927 net369
*928 net37
*929 net370
*930 net371
*931 net372
*932 net373
*933 net374
*934 net375
*935 net376
*936 net377
*937 net378
*938 net379
*939 net38
*940 net380
*941 net381
*942 net382
*943 net383
*944 net384
*945 net385
*946 net386
*947 net387
*948 net388
*949 net389
*950 net39
*951 net390
*952 net391
*953 net392
*954 net393
*955 net394
*956 net395
*957 net396
*958 net397
*959 net398
*960 net399
*961 net4
*962 net40
*963 net400
*964 net401
*965 net402
*966 net403
*967 net404
*968 net405
*969 net406
*970 net407
*971 net408
*972 net409
*973 net41
*974 net410
*975 net411
*976 net412
*977 net413
*978 net414
*979 net415
*980 net416
*981 net417
*982 net418
*983 net419
*984 net42
*985 net420
*986 net421
*987 net422
*988 net423
*989 net424
*990 net425
*991 net426
*992 net427
*993 net428
*994 net429
*995 net43
*996 net430
*997 net431
*998 net432
*999 net433
*1000 net434
*1001 net435
*1002 net436
*1003 net437
*1004 net438
*1005 net439
*1006 net44
*1007 net440
*1008 net441
*1009 net442
*1010 net443
*1011 net444
*1012 net445
*1013 net446
*1014 net447
*1015 net448
*1016 net449
*1017 net45
*1018 net450
*1019 net451
*1020 net452
*1021 net453
*1022 net454
*1023 net455
*1024 net456
*1025 net457
*1026 net458
*1027 net459
*1028 net46
*1029 net460
*1030 net461
*1031 net462
*1032 net463
*1033 net464
*1034 net465
*1035 net466
*1036 net467
*1037 net468
*1038 net469
*1039 net47
*1040 net470
*1041 net471
*1042 net472
*1043 net473
*1044 net474
*1045 net475
*1046 net476
*1047 net477
*1048 net478
*1049 net479
*1050 net48
*1051 net480
*1052 net481
*1053 net482
*1054 net483
*1055 net484
*1056 net485
*1057 net486
*1058 net487
*1059 net488
*1060 net489
*1061 net49
*1062 net490
*1063 net491
*1064 net492
*1065 net493
*1066 net494
*1067 net495
*1068 net496
*1069 net497
*1070 net498
*1071 net499
*1072 net5
*1073 net50
*1074 net500
*1075 net501
*1076 net502
*1077 net503
*1078 net504
*1079 net505
*1080 net506
*1081 net507
*1082 net508
*1083 net509
*1084 net51
*1085 net510
*1086 net511
*1087 net512
*1088 net513
*1089 net514
*1090 net515
*1091 net516
*1092 net517
*1093 net518
*1094 net519
*1095 net52
*1096 net520
*1097 net521
*1098 net522
*1099 net523
*1100 net524
*1101 net525
*1102 net526
*1103 net527
*1104 net528
*1105 net529
*1106 net53
*1107 net530
*1108 net531
*1109 net532
*1110 net533
*1111 net534
*1112 net535
*1113 net536
*1114 net537
*1115 net538
*1116 net539
*1117 net54
*1118 net540
*1119 net541
*1120 net542
*1121 net543
*1122 net544
*1123 net545
*1124 net546
*1125 net547
*1126 net548
*1127 net549
*1128 net55
*1129 net550
*1130 net551
*1131 net552
*1132 net553
*1133 net554
*1134 net555
*1135 net556
*1136 net557
*1137 net558
*1138 net559
*1139 net56
*1140 net560
*1141 net561
*1142 net562
*1143 net563
*1144 net564
*1145 net565
*1146 net566
*1147 net567
*1148 net568
*1149 net569
*1150 net57
*1151 net570
*1152 net571
*1153 net572
*1154 net573
*1155 net574
*1156 net575
*1157 net576
*1158 net577
*1159 net578
*1160 net579
*1161 net58
*1162 net580
*1163 net581
*1164 net582
*1165 net583
*1166 net584
*1167 net585
*1168 net586
*1169 net587
*1170 net588
*1171 net589
*1172 net59
*1173 net590
*1174 net591
*1175 net592
*1176 net593
*1177 net594
*1178 net595
*1179 net596
*1180 net597
*1181 net598
*1182 net599
*1183 net6
*1184 net60
*1185 net600
*1186 net601
*1187 net602
*1188 net603
*1189 net604
*1190 net605
*1191 net606
*1192 net607
*1193 net608
*1194 net609
*1195 net61
*1196 net610
*1197 net611
*1198 net612
*1199 net613
*1200 net614
*1201 net615
*1202 net616
*1203 net617
*1204 net618
*1205 net619
*1206 net62
*1207 net620
*1208 net621
*1209 net622
*1210 net623
*1211 net624
*1212 net625
*1213 net626
*1214 net627
*1215 net628
*1216 net629
*1217 net63
*1218 net630
*1219 net631
*1220 net632
*1221 net633
*1222 net634
*1223 net635
*1224 net636
*1225 net637
*1226 net638
*1227 net639
*1228 net64
*1229 net640
*1230 net641
*1231 net642
*1232 net643
*1233 net644
*1234 net645
*1235 net646
*1236 net647
*1237 net648
*1238 net649
*1239 net65
*1240 net650
*1241 net651
*1242 net652
*1243 net653
*1244 net654
*1245 net655
*1246 net656
*1247 net657
*1248 net658
*1249 net659
*1250 net66
*1251 net660
*1252 net661
*1253 net662
*1254 net663
*1255 net664
*1256 net665
*1257 net666
*1258 net667
*1259 net668
*1260 net669
*1261 net67
*1262 net670
*1263 net671
*1264 net672
*1265 net673
*1266 net674
*1267 net675
*1268 net676
*1269 net677
*1270 net678
*1271 net679
*1272 net68
*1273 net680
*1274 net681
*1275 net682
*1276 net683
*1277 net684
*1278 net685
*1279 net686
*1280 net687
*1281 net688
*1282 net689
*1283 net69
*1284 net690
*1285 net691
*1286 net692
*1287 net693
*1288 net694
*1289 net695
*1290 net696
*1291 net697
*1292 net698
*1293 net699
*1294 net7
*1295 net70
*1296 net700
*1297 net701
*1298 net702
*1299 net703
*1300 net704
*1301 net705
*1302 net706
*1303 net707
*1304 net708
*1305 net709
*1306 net71
*1307 net710
*1308 net711
*1309 net712
*1310 net713
*1311 net714
*1312 net715
*1313 net716
*1314 net717
*1315 net718
*1316 net719
*1317 net72
*1318 net720
*1319 net721
*1320 net722
*1321 net723
*1322 net724
*1323 net725
*1324 net726
*1325 net727
*1326 net728
*1327 net729
*1328 net73
*1329 net730
*1330 net731
*1331 net732
*1332 net733
*1333 net734
*1334 net735
*1335 net736
*1336 net737
*1337 net738
*1338 net739
*1339 net74
*1340 net740
*1341 net741
*1342 net742
*1343 net743
*1344 net744
*1345 net745
*1346 net746
*1347 net747
*1348 net748
*1349 net749
*1350 net75
*1351 net750
*1352 net751
*1353 net752
*1354 net753
*1355 net754
*1356 net755
*1357 net756
*1358 net757
*1359 net758
*1360 net759
*1361 net76
*1362 net760
*1363 net761
*1364 net762
*1365 net763
*1366 net764
*1367 net765
*1368 net766
*1369 net767
*1370 net768
*1371 net769
*1372 net77
*1373 net770
*1374 net771
*1375 net772
*1376 net773
*1377 net774
*1378 net775
*1379 net776
*1380 net777
*1381 net778
*1382 net779
*1383 net78
*1384 net780
*1385 net781
*1386 net782
*1387 net783
*1388 net784
*1389 net785
*1390 net786
*1391 net787
*1392 net788
*1393 net789
*1394 net79
*1395 net790
*1396 net791
*1397 net792
*1398 net793
*1399 net794
*1400 net795
*1401 net796
*1402 net797
*1403 net798
*1404 net799
*1405 net8
*1406 net80
*1407 net800
*1408 net801
*1409 net802
*1410 net803
*1411 net804
*1412 net805
*1413 net806
*1414 net807
*1415 net808
*1416 net809
*1417 net81
*1418 net810
*1419 net811
*1420 net812
*1421 net813
*1422 net814
*1423 net815
*1424 net816
*1425 net817
*1426 net818
*1427 net819
*1428 net82
*1429 net820
*1430 net821
*1431 net822
*1432 net823
*1433 net824
*1434 net825
*1435 net826
*1436 net827
*1437 net828
*1438 net829
*1439 net83
*1440 net830
*1441 net831
*1442 net832
*1443 net833
*1444 net834
*1445 net835
*1446 net836
*1447 net837
*1448 net838
*1449 net839
*1450 net84
*1451 net840
*1452 net841
*1453 net842
*1454 net843
*1455 net844
*1456 net845
*1457 net846
*1458 net847
*1459 net848
*1460 net849
*1461 net85
*1462 net850
*1463 net851
*1464 net852
*1465 net853
*1466 net854
*1467 net855
*1468 net856
*1469 net857
*1470 net858
*1471 net859
*1472 net86
*1473 net860
*1474 net861
*1475 net862
*1476 net863
*1477 net864
*1478 net865
*1479 net866
*1480 net867
*1481 net868
*1482 net869
*1483 net87
*1484 net870
*1485 net871
*1486 net872
*1487 net873
*1488 net874
*1489 net875
*1490 net876
*1491 net877
*1492 net878
*1493 net879
*1494 net88
*1495 net880
*1496 net881
*1497 net882
*1498 net883
*1499 net884
*1500 net885
*1501 net886
*1502 net887
*1503 net888
*1504 net889
*1505 net89
*1506 net890
*1507 net891
*1508 net892
*1509 net893
*1510 net894
*1511 net895
*1512 net896
*1513 net897
*1514 net898
*1515 net899
*1516 net9
*1517 net90
*1518 net900
*1519 net901
*1520 net902
*1521 net903
*1522 net904
*1523 net905
*1524 net906
*1525 net907
*1526 net908
*1527 net909
*1528 net91
*1529 net910
*1530 net911
*1531 net912
*1532 net913
*1533 net914
*1534 net915
*1535 net916
*1536 net917
*1537 net918
*1538 net919
*1539 net92
*1540 net920
*1541 net921
*1542 net922
*1543 net923
*1544 net924
*1545 net925
*1546 net926
*1547 net927
*1548 net928
*1549 net929
*1550 net93
*1551 net930
*1552 net931
*1553 net932
*1554 net933
*1555 net934
*1556 net935
*1557 net936
*1558 net937
*1559 net938
*1560 net939
*1561 net94
*1562 net940
*1563 net941
*1564 net942
*1565 net943
*1566 net944
*1567 net945
*1568 net946
*1569 net947
*1570 net948
*1571 net949
*1572 net95
*1573 net950
*1574 net951
*1575 net952
*1576 net953
*1577 net954
*1578 net955
*1579 net956
*1580 net957
*1581 net958
*1582 net959
*1583 net96
*1584 net960
*1585 net961
*1586 net962
*1587 net963
*1588 net964
*1589 net965
*1590 net966
*1591 net967
*1592 net968
*1593 net969
*1594 net97
*1595 net970
*1596 net971
*1597 net972
*1598 net973
*1599 net974
*1600 net975
*1601 net976
*1602 net977
*1603 net978
*1604 net979
*1605 net98
*1606 net980
*1607 net981
*1608 net982
*1609 net983
*1610 net984
*1611 net985
*1612 net986
*1613 net987
*1614 net988
*1615 net989
*1616 net99
*1617 net990
*1618 net991
*1619 net992
*1620 net993
*1621 net994
*1622 net995
*1623 net996
*1624 net997
*1625 net998
*1626 net999
*1627 ANTENNA_c100_A1
*1628 ANTENNA_c100_A3
*1629 ANTENNA_c100_S1
*1630 ANTENNA_c101_A2
*1631 ANTENNA_c101_S0
*1632 ANTENNA_c101_S1
*1633 ANTENNA_c102_A0
*1634 ANTENNA_c102_A1
*1635 ANTENNA_c102_A2
*1636 ANTENNA_c102_S0
*1637 ANTENNA_c102_X
*1638 ANTENNA_c103_A0
*1639 ANTENNA_c103_A2
*1640 ANTENNA_c103_S0
*1641 ANTENNA_c103_X
*1642 ANTENNA_c104_S1
*1643 ANTENNA_c105_A1
*1644 ANTENNA_c105_A3
*1645 ANTENNA_c105_S0
*1646 ANTENNA_c105_S1
*1647 ANTENNA_c105_X
*1648 ANTENNA_c106_A1
*1649 ANTENNA_c106_A2
*1650 ANTENNA_c106_S0
*1651 ANTENNA_c106_S1
*1652 ANTENNA_c107_A0
*1653 ANTENNA_c107_S0
*1654 ANTENNA_c107_X
*1655 ANTENNA_c108_A1
*1656 ANTENNA_c108_A2
*1657 ANTENNA_c108_A3
*1658 ANTENNA_c108_S0
*1659 ANTENNA_c108_S1
*1660 ANTENNA_c109_A3
*1661 ANTENNA_c109_S1
*1662 ANTENNA_c109_X
*1663 ANTENNA_c110_A2
*1664 ANTENNA_c110_A3
*1665 ANTENNA_c111_A1
*1666 ANTENNA_c111_A2
*1667 ANTENNA_c111_A3
*1668 ANTENNA_c111_B1
*1669 ANTENNA_c113_A2
*1670 ANTENNA_c113_A3
*1671 ANTENNA_c113_B1
*1672 ANTENNA_c114_A4
*1673 ANTENNA_c114_B1
*1674 ANTENNA_c115_A1
*1675 ANTENNA_c115_A3
*1676 ANTENNA_c115_S1
*1677 ANTENNA_c116_A3
*1678 ANTENNA_c116_B1
*1679 ANTENNA_c117_A3
*1680 ANTENNA_c117_S1
*1681 ANTENNA_c118_A0
*1682 ANTENNA_c119_A3
*1683 ANTENNA_c119_A4
*1684 ANTENNA_c119_B1
*1685 ANTENNA_c120_A3
*1686 ANTENNA_c120_A4
*1687 ANTENNA_c120_B1
*1688 ANTENNA_c121_A1
*1689 ANTENNA_c121_A3
*1690 ANTENNA_c122_A1
*1691 ANTENNA_c122_A2
*1692 ANTENNA_c124_A0
*1693 ANTENNA_c124_A3
*1694 ANTENNA_c124_S0
*1695 ANTENNA_c125_S0
*1696 ANTENNA_c126_A2
*1697 ANTENNA_c126_S0
*1698 ANTENNA_c127_A3
*1699 ANTENNA_c129_B1
*1700 ANTENNA_c131_A3
*1701 ANTENNA_c132_A1
*1702 ANTENNA_c132_A2
*1703 ANTENNA_c132_A3
*1704 ANTENNA_c132_A4
*1705 ANTENNA_c132_X
*1706 ANTENNA_c133_A1
*1707 ANTENNA_c133_A2
*1708 ANTENNA_c133_A4
*1709 ANTENNA_c133_B1
*1710 ANTENNA_c133_X
*1711 ANTENNA_c134_A2
*1712 ANTENNA_c134_A3
*1713 ANTENNA_c134_X
*1714 ANTENNA_c135_A1
*1715 ANTENNA_c135_A2
*1716 ANTENNA_c135_A3
*1717 ANTENNA_c135_A4
*1718 ANTENNA_c135_B1
*1719 ANTENNA_c135_X
*1720 ANTENNA_c136_A1
*1721 ANTENNA_c136_A2
*1722 ANTENNA_c136_A3
*1723 ANTENNA_c136_B1
*1724 ANTENNA_c136_X
*1725 ANTENNA_c137_A1
*1726 ANTENNA_c137_A2
*1727 ANTENNA_c137_A3
*1728 ANTENNA_c137_X
*1729 ANTENNA_c138_A1
*1730 ANTENNA_c138_A3
*1731 ANTENNA_c138_A4
*1732 ANTENNA_c138_B1
*1733 ANTENNA_c139_A1
*1734 ANTENNA_c139_A2
*1735 ANTENNA_c139_A3
*1736 ANTENNA_c139_A4
*1737 ANTENNA_c139_B1
*1738 ANTENNA_c139_X
*1739 ANTENNA_c140_A1
*1740 ANTENNA_c140_A3
*1741 ANTENNA_c140_A4
*1742 ANTENNA_c140_B1
*1743 ANTENNA_c140_X
*1744 ANTENNA_c141_A1
*1745 ANTENNA_c141_A2
*1746 ANTENNA_c141_A3
*1747 ANTENNA_c142_A1
*1748 ANTENNA_c142_A2
*1749 ANTENNA_c142_A3
*1750 ANTENNA_c142_S0
*1751 ANTENNA_c142_X
*1752 ANTENNA_c143_A2
*1753 ANTENNA_c143_A3
*1754 ANTENNA_c143_A4
*1755 ANTENNA_c144_A2
*1756 ANTENNA_c144_A3
*1757 ANTENNA_c145_A0
*1758 ANTENNA_c145_A1
*1759 ANTENNA_c145_A3
*1760 ANTENNA_c145_S0
*1761 ANTENNA_c146_A2
*1762 ANTENNA_c146_A3
*1763 ANTENNA_c146_X
*1764 ANTENNA_c147_A0
*1765 ANTENNA_c147_A3
*1766 ANTENNA_c147_X
*1767 ANTENNA_c148_A1
*1768 ANTENNA_c149_A1
*1769 ANTENNA_c149_A4
*1770 ANTENNA_c149_X
*1771 ANTENNA_c150_A0
*1772 ANTENNA_c150_A1
*1773 ANTENNA_c150_A2
*1774 ANTENNA_c150_A3
*1775 ANTENNA_c150_S1
*1776 ANTENNA_c150_X
*1777 ANTENNA_c151_A1
*1778 ANTENNA_c151_A2
*1779 ANTENNA_c151_A4
*1780 ANTENNA_c151_X
*1781 ANTENNA_c152_A0
*1782 ANTENNA_c152_A1
*1783 ANTENNA_c152_A2
*1784 ANTENNA_c152_S0
*1785 ANTENNA_c152_S1
*1786 ANTENNA_c153_A0
*1787 ANTENNA_c153_A2
*1788 ANTENNA_c153_S0
*1789 ANTENNA_c153_S1
*1790 ANTENNA_c154_A1
*1791 ANTENNA_c154_A2
*1792 ANTENNA_c154_A3
*1793 ANTENNA_c154_A4
*1794 ANTENNA_c155_A3
*1795 ANTENNA_c155_S0
*1796 ANTENNA_c155_S1
*1797 ANTENNA_c155_X
*1798 ANTENNA_c156_A1
*1799 ANTENNA_c156_A2
*1800 ANTENNA_c156_A3
*1801 ANTENNA_c156_A4
*1802 ANTENNA_c156_B1
*1803 ANTENNA_c156_X
*1804 ANTENNA_c157_A0
*1805 ANTENNA_c157_A1
*1806 ANTENNA_c157_A2
*1807 ANTENNA_c157_A3
*1808 ANTENNA_c157_S0
*1809 ANTENNA_c157_S1
*1810 ANTENNA_c157_X
*1811 ANTENNA_c158_A4
*1812 ANTENNA_c158_B1
*1813 ANTENNA_c159_A2
*1814 ANTENNA_c159_A3
*1815 ANTENNA_c159_A4
*1816 ANTENNA_c159_B1
*1817 ANTENNA_c159_X
*1818 ANTENNA_c160_A1
*1819 ANTENNA_c160_A2
*1820 ANTENNA_c160_A3
*1821 ANTENNA_c160_A4
*1822 ANTENNA_c161_A2
*1823 ANTENNA_c161_A4
*1824 ANTENNA_c161_X
*1825 ANTENNA_c162_A1
*1826 ANTENNA_c162_A3
*1827 ANTENNA_c162_A4
*1828 ANTENNA_c162_X
*1829 ANTENNA_c163_A0
*1830 ANTENNA_c163_A2
*1831 ANTENNA_c163_A3
*1832 ANTENNA_c163_S0
*1833 ANTENNA_c164_A1
*1834 ANTENNA_c164_A2
*1835 ANTENNA_c164_A3
*1836 ANTENNA_c164_S0
*1837 ANTENNA_c164_S1
*1838 ANTENNA_c164_X
*1839 ANTENNA_c165_A0
*1840 ANTENNA_c165_A1
*1841 ANTENNA_c165_A3
*1842 ANTENNA_c165_S0
*1843 ANTENNA_c165_S1
*1844 ANTENNA_c165_X
*1845 ANTENNA_c166_A1
*1846 ANTENNA_c166_A2
*1847 ANTENNA_c166_A3
*1848 ANTENNA_c166_B1
*1849 ANTENNA_c166_X
*1850 ANTENNA_c167_A1
*1851 ANTENNA_c167_A2
*1852 ANTENNA_c167_A4
*1853 ANTENNA_c167_B1
*1854 ANTENNA_c168_A0
*1855 ANTENNA_c168_A1
*1856 ANTENNA_c168_A3
*1857 ANTENNA_c168_S0
*1858 ANTENNA_c168_X
*1859 ANTENNA_c169_A0
*1860 ANTENNA_c169_A1
*1861 ANTENNA_c169_A2
*1862 ANTENNA_c169_S0
*1863 ANTENNA_c169_S1
*1864 ANTENNA_c169_X
*1865 ANTENNA_c170_A1
*1866 ANTENNA_c170_A3
*1867 ANTENNA_c170_S0
*1868 ANTENNA_c170_S1
*1869 ANTENNA_c171_A0
*1870 ANTENNA_c171_A1
*1871 ANTENNA_c171_S0
*1872 ANTENNA_c172_A0
*1873 ANTENNA_c172_A2
*1874 ANTENNA_c172_A3
*1875 ANTENNA_c172_S0
*1876 ANTENNA_c173_A0
*1877 ANTENNA_c173_A1
*1878 ANTENNA_c173_A3
*1879 ANTENNA_c174_A3
*1880 ANTENNA_c174_S1
*1881 ANTENNA_c174_X
*1882 ANTENNA_c175_A1
*1883 ANTENNA_c175_A2
*1884 ANTENNA_c175_S0
*1885 ANTENNA_c175_X
*1886 ANTENNA_c176_A2
*1887 ANTENNA_c176_A3
*1888 ANTENNA_c176_S0
*1889 ANTENNA_c176_S1
*1890 ANTENNA_c176_X
*1891 ANTENNA_c177_A0
*1892 ANTENNA_c177_A1
*1893 ANTENNA_c177_A2
*1894 ANTENNA_c177_A3
*1895 ANTENNA_c177_S0
*1896 ANTENNA_c177_S1
*1897 ANTENNA_c177_X
*1898 ANTENNA_c178_A1
*1899 ANTENNA_c178_A2
*1900 ANTENNA_c178_A3
*1901 ANTENNA_c178_S0
*1902 ANTENNA_c178_S1
*1903 ANTENNA_c179_A0
*1904 ANTENNA_c179_A1
*1905 ANTENNA_c179_A2
*1906 ANTENNA_c179_A3
*1907 ANTENNA_c179_S0
*1908 ANTENNA_c179_S1
*1909 ANTENNA_c179_X
*1910 ANTENNA_c180_A1
*1911 ANTENNA_c180_A2
*1912 ANTENNA_c180_A3
*1913 ANTENNA_c180_A4
*1914 ANTENNA_c180_B1