*SPEF "ieee 1481-1999"
*DESIGN "netlist_1"
*DATE "16:25:09 Monday July 29, 2024"
*VENDOR "The OpenROAD Project"
*PROGRAM "OpenROAD"
*VERSION "d423155d69de7f683a23f6916ead418a615ad4ad"
*DESIGN_FLOW "NAME_SCOPE LOCAL" "PIN_CAP NONE"
*DIVIDER /
*DELIMITER :
*BUS_DELIMITER []
*T_UNIT 1 NS
*C_UNIT 1 PF
*R_UNIT 1 OHM
*L_UNIT 1 HENRY

*NAME_MAP
*3 clk
*4 in0
*5 in1
*6 in10
*7 in11
*8 in12
*9 in13
*10 in14
*11 in15
*12 in16
*13 in17
*14 in18
*15 in19
*16 in2
*17 in20
*18 in21
*19 in22
*20 in23
*21 in24
*22 in25
*23 in26
*24 in27
*25 in28
*26 in29
*27 in3
*28 in30
*29 in31
*30 in32
*31 in33
*32 in34
*33 in35
*34 in36
*35 in37
*36 in38
*37 in39
*38 in4
*39 in40
*40 in41
*41 in42
*42 in43
*43 in44
*44 in45
*45 in46
*46 in47
*47 in48
*48 in49
*49 in5
*50 in50
*51 in51
*52 in52
*53 in53
*54 in54
*55 in55
*56 in56
*57 in57
*58 in58
*59 in59
*60 in6
*61 in60
*62 in61
*63 in7
*64 in8
*65 in9
*66 out0
*67 out1
*68 out10
*69 out11
*70 out12
*71 out13
*72 out14
*73 out15
*74 out16
*75 out17
*76 out18
*77 out19
*78 out2
*79 out20
*80 out21
*81 out22
*82 out23
*83 out24
*84 out25
*85 out26
*86 out27
*87 out28
*88 out29
*89 out3
*90 out30
*91 out31
*92 out32
*93 out33
*94 out34
*95 out35
*96 out36
*97 out37
*98 out38
*99 out39
*100 out4
*101 out40
*102 out41
*103 out42
*104 out43
*105 out44
*106 out45
*107 out46
*108 out47
*109 out48
*110 out49
*111 out5
*112 out50
*113 out51
*114 out52
*115 out53
*116 out54
*117 out55
*118 out56
*119 out57
*120 out58
*121 out59
*122 out6
*123 out60
*124 out61
*125 out7
*126 out8
*127 out9
*128 rst
*129 clknet_0_clk
*130 clknet_0_net154
*131 clknet_0_net168
*132 clknet_0_net344
*133 clknet_0_net350
*134 clknet_0_net353
*135 clknet_0_net359
*136 clknet_0_net372
*137 clknet_0_net373
*138 clknet_0_net376
*139 clknet_0_net445
*140 clknet_0_net446
*141 clknet_0_net464
*142 clknet_0_net469
*143 clknet_0_net477
*144 clknet_0_net480
*145 clknet_0_net482
*146 clknet_0_net507
*147 clknet_0_net567
*148 clknet_0_net595
*149 clknet_0_net622
*150 clknet_0_net707
*151 clknet_0_net708
*152 clknet_0_net710
*153 clknet_0_net744
*154 clknet_0_net752
*155 clknet_0_net753
*156 clknet_0_net754
*157 clknet_0_net769
*158 clknet_0_net770
*159 clknet_0_net771
*160 clknet_0_net789
*161 clknet_0_net806
*162 clknet_0_net884
*163 clknet_0_net887
*164 clknet_0_net889
*165 clknet_0_net892
*166 clknet_0_net919
*167 clknet_0_net930
*168 clknet_1_0__leaf_net154
*169 clknet_1_0__leaf_net168
*170 clknet_1_0__leaf_net344
*171 clknet_1_0__leaf_net350
*172 clknet_1_0__leaf_net353
*173 clknet_1_0__leaf_net359
*174 clknet_1_0__leaf_net372
*175 clknet_1_0__leaf_net373
*176 clknet_1_0__leaf_net376
*177 clknet_1_0__leaf_net445
*178 clknet_1_0__leaf_net446
*179 clknet_1_0__leaf_net464
*180 clknet_1_0__leaf_net469
*181 clknet_1_0__leaf_net477
*182 clknet_1_0__leaf_net480
*183 clknet_1_0__leaf_net482
*184 clknet_1_0__leaf_net507
*185 clknet_1_0__leaf_net567
*186 clknet_1_0__leaf_net595
*187 clknet_1_0__leaf_net622
*188 clknet_1_0__leaf_net707
*189 clknet_1_0__leaf_net708
*190 clknet_1_0__leaf_net710
*191 clknet_1_0__leaf_net744
*192 clknet_1_0__leaf_net752
*193 clknet_1_0__leaf_net753
*194 clknet_1_0__leaf_net754
*195 clknet_1_0__leaf_net769
*196 clknet_1_0__leaf_net770
*197 clknet_1_0__leaf_net771
*198 clknet_1_0__leaf_net789
*199 clknet_1_0__leaf_net806
*200 clknet_1_0__leaf_net884
*201 clknet_1_0__leaf_net887
*202 clknet_1_0__leaf_net889
*203 clknet_1_0__leaf_net892
*204 clknet_1_0__leaf_net919
*205 clknet_1_0__leaf_net930
*206 clknet_1_1__leaf_net154
*207 clknet_1_1__leaf_net168
*208 clknet_1_1__leaf_net344
*209 clknet_1_1__leaf_net350
*210 clknet_1_1__leaf_net353
*211 clknet_1_1__leaf_net359
*212 clknet_1_1__leaf_net372
*213 clknet_1_1__leaf_net373
*214 clknet_1_1__leaf_net376
*215 clknet_1_1__leaf_net445
*216 clknet_1_1__leaf_net446
*217 clknet_1_1__leaf_net464
*218 clknet_1_1__leaf_net469
*219 clknet_1_1__leaf_net477
*220 clknet_1_1__leaf_net480
*221 clknet_1_1__leaf_net482
*222 clknet_1_1__leaf_net507
*223 clknet_1_1__leaf_net567
*224 clknet_1_1__leaf_net595
*225 clknet_1_1__leaf_net622
*226 clknet_1_1__leaf_net707
*227 clknet_1_1__leaf_net708
*228 clknet_1_1__leaf_net710
*229 clknet_1_1__leaf_net744
*230 clknet_1_1__leaf_net752
*231 clknet_1_1__leaf_net753
*232 clknet_1_1__leaf_net754
*233 clknet_1_1__leaf_net769
*234 clknet_1_1__leaf_net770
*235 clknet_1_1__leaf_net771
*236 clknet_1_1__leaf_net789
*237 clknet_1_1__leaf_net806
*238 clknet_1_1__leaf_net884
*239 clknet_1_1__leaf_net887
*240 clknet_1_1__leaf_net889
*241 clknet_1_1__leaf_net892
*242 clknet_1_1__leaf_net919
*243 clknet_1_1__leaf_net930
*244 clknet_4_0_0_clk
*245 clknet_4_10_0_clk
*246 clknet_4_11_0_clk
*247 clknet_4_12_0_clk
*248 clknet_4_13_0_clk
*249 clknet_4_14_0_clk
*250 clknet_4_15_0_clk
*251 clknet_4_1_0_clk
*252 clknet_4_2_0_clk
*253 clknet_4_3_0_clk
*254 clknet_4_4_0_clk
*255 clknet_4_5_0_clk
*256 clknet_4_6_0_clk
*257 clknet_4_7_0_clk
*258 clknet_4_8_0_clk
*259 clknet_4_9_0_clk
*260 net0
*261 net1
*262 net10
*263 net100
*264 net1000
*265 net1001
*266 net1002
*267 net1003
*268 net1004
*269 net1005
*270 net1006
*271 net1007
*272 net1008
*273 net1009
*274 net101
*275 net1010
*276 net1011
*277 net1012
*278 net1013
*279 net1014
*280 net1015
*281 net1016
*282 net1017
*283 net1018
*284 net1019
*285 net102
*286 net1020
*287 net1021
*288 net1022
*289 net1023
*290 net1024
*291 net1025
*292 net1026
*293 net1027
*294 net1028
*295 net1029
*296 net103
*297 net1030
*298 net1031
*299 net1032
*300 net1033
*301 net1034
*302 net1035
*303 net1036
*304 net1037
*305 net1038
*306 net1039
*307 net104
*308 net1040
*309 net1041
*310 net1042
*311 net1043
*312 net1044
*313 net1045
*314 net1046
*315 net1047
*316 net1048
*317 net1049
*318 net105
*319 net1050
*320 net1051
*321 net1052
*322 net1053
*323 net1054
*324 net1055
*325 net1056
*326 net1057
*327 net1058
*328 net1059
*329 net106
*330 net1060
*331 net1061
*332 net1062
*333 net1063
*334 net1064
*335 net1065
*336 net1066
*337 net1067
*338 net1068
*339 net1069
*340 net107
*341 net1070
*342 net1071
*343 net1072
*344 net1073
*345 net1074
*346 net1075
*347 net1076
*348 net1077
*349 net1078
*350 net1079
*351 net108
*352 net1080
*353 net1081
*354 net1082
*355 net1083
*356 net1084
*357 net1085
*358 net1086
*359 net1087
*360 net1088
*361 net1089
*362 net109
*363 net1090
*364 net1091
*365 net1092
*366 net1093
*367 net1094
*368 net1095
*369 net1096
*370 net1097
*371 net1098
*372 net1099
*373 net11
*374 net110
*375 net1100
*376 net1101
*377 net1102
*378 net111
*379 net112
*380 net113
*381 net114
*382 net115
*383 net116
*384 net117
*385 net118
*386 net119
*387 net12
*388 net120
*389 net121
*390 net122
*391 net123
*392 net124
*393 net125
*394 net126
*395 net127
*396 net128
*397 net129
*398 net13
*399 net130
*400 net131
*401 net132
*402 net133
*403 net134
*404 net135
*405 net136
*406 net137
*407 net138
*408 net139
*409 net14
*410 net140
*411 net141
*412 net142
*413 net143
*414 net144
*415 net145
*416 net146
*417 net147
*418 net148
*419 net149
*420 net15
*421 net150
*422 net151
*423 net152
*424 net153
*425 net154
*426 net155
*427 net156
*428 net157
*429 net158
*430 net159
*431 net16
*432 net160
*433 net161
*434 net162
*435 net163
*436 net164
*437 net165
*438 net166
*439 net167
*440 net168
*441 net169
*442 net17
*443 net170
*444 net171
*445 net172
*446 net173
*447 net174
*448 net175
*449 net176
*450 net177
*451 net178
*452 net179
*453 net18
*454 net180
*455 net181
*456 net182
*457 net183
*458 net184
*459 net185
*460 net186
*461 net187
*462 net188
*463 net189
*464 net19
*465 net190
*466 net191
*467 net192
*468 net193
*469 net194
*470 net195
*471 net196
*472 net197
*473 net198
*474 net199
*475 net2
*476 net20
*477 net200
*478 net201
*479 net202
*480 net203
*481 net204
*482 net205
*483 net206
*484 net207
*485 net208
*486 net209
*487 net21
*488 net210
*489 net211
*490 net212
*491 net213
*492 net214
*493 net215
*494 net216
*495 net217
*496 net218
*497 net219
*498 net22
*499 net220
*500 net221
*501 net222
*502 net223
*503 net224
*504 net225
*505 net226
*506 net227
*507 net228
*508 net229
*509 net23
*510 net230
*511 net231
*512 net232
*513 net233
*514 net234
*515 net235
*516 net236
*517 net237
*518 net238
*519 net239
*520 net24
*521 net240
*522 net241
*523 net242
*524 net243
*525 net244
*526 net245
*527 net246
*528 net247
*529 net248
*530 net249
*531 net25
*532 net250
*533 net251
*534 net252
*535 net253
*536 net254
*537 net255
*538 net256
*539 net257
*540 net258
*541 net259
*542 net26
*543 net260
*544 net261
*545 net262
*546 net263
*547 net264
*548 net265
*549 net266
*550 net267
*551 net268
*552 net269
*553 net27
*554 net270
*555 net271
*556 net272
*557 net273
*558 net274
*559 net275
*560 net276
*561 net277
*562 net278
*563 net279
*564 net28
*565 net280
*566 net281
*567 net282
*568 net283
*569 net284
*570 net285
*571 net286
*572 net287
*573 net288
*574 net289
*575 net29
*576 net290
*577 net291
*578 net292
*579 net293
*580 net294
*581 net295
*582 net296
*583 net297
*584 net298
*585 net299
*586 net3
*587 net30
*588 net300
*589 net301
*590 net302
*591 net303
*592 net304
*593 net305
*594 net306
*595 net307
*596 net308
*597 net309
*598 net31
*599 net310
*600 net311
*601 net312
*602 net313
*603 net314
*604 net315
*605 net316
*606 net317
*607 net318
*608 net319
*609 net32
*610 net320
*611 net321
*612 net322
*613 net323
*614 net324
*615 net325
*616 net326
*617 net327
*618 net328
*619 net329
*620 net33
*621 net330
*622 net331
*623 net332
*624 net333
*625 net334
*626 net335
*627 net336
*628 net337
*629 net338
*630 net339
*631 net34
*632 net340
*633 net341
*634 net342
*635 net343
*636 net344
*637 net345
*638 net346
*639 net347
*640 net348
*641 net349
*642 net35
*643 net350
*644 net351
*645 net352
*646 net353
*647 net354
*648 net355
*649 net356
*650 net357
*651 net358
*652 net359
*653 net36
*654 net360
*655 net361
*656 net362
*657 net363
*658 net364
*659 net365
*660 net366
*661 net367
*662 net368
*663 net369
*664 net37
*665 net370
*666 net371
*667 net372
*668 net373
*669 net374
*670 net375
*671 net376
*672 net377
*673 net378
*674 net379
*675 net38
*676 net380
*677 net381
*678 net382
*679 net383
*680 net384
*681 net385
*682 net386
*683 net387
*684 net388
*685 net389
*686 net39
*687 net390
*688 net391
*689 net392
*690 net393
*691 net394
*692 net395
*693 net396
*694 net397
*695 net398
*696 net399
*697 net4
*698 net40
*699 net400
*700 net401
*701 net402
*702 net403
*703 net404
*704 net405
*705 net406
*706 net407
*707 net408
*708 net409
*709 net41
*710 net410
*711 net411
*712 net412
*713 net413
*714 net414
*715 net415
*716 net416
*717 net417
*718 net418
*719 net419
*720 net42
*721 net420
*722 net421
*723 net422
*724 net423
*725 net424
*726 net425
*727 net426
*728 net427
*729 net428
*730 net429
*731 net43
*732 net430
*733 net431
*734 net432
*735 net433
*736 net434
*737 net435
*738 net436
*739 net437
*740 net438
*741 net439
*742 net44
*743 net440
*744 net441
*745 net442
*746 net443
*747 net444
*748 net445
*749 net446
*750 net447
*751 net448
*752 net449
*753 net45
*754 net450
*755 net451
*756 net452
*757 net453
*758 net454
*759 net455
*760 net456
*761 net457
*762 net458
*763 net459
*764 net46
*765 net460
*766 net461
*767 net462
*768 net463
*769 net464
*770 net465
*771 net466
*772 net467
*773 net468
*774 net469
*775 net47
*776 net470
*777 net471
*778 net472
*779 net473
*780 net474
*781 net475
*782 net476
*783 net477
*784 net478
*785 net479
*786 net48
*787 net480
*788 net481
*789 net482
*790 net483
*791 net484
*792 net485
*793 net486
*794 net487
*795 net488
*796 net489
*797 net49
*798 net490
*799 net491
*800 net492
*801 net493
*802 net494
*803 net495
*804 net496
*805 net497
*806 net498
*807 net499
*808 net5
*809 net50
*810 net500
*811 net501
*812 net502
*813 net503
*814 net504
*815 net505
*816 net506
*817 net507
*818 net508
*819 net509
*820 net51
*821 net510
*822 net511
*823 net512
*824 net513
*825 net514
*826 net515
*827 net516
*828 net517
*829 net518
*830 net519
*831 net52
*832 net520
*833 net521
*834 net522
*835 net523
*836 net524
*837 net525
*838 net526
*839 net527
*840 net528
*841 net529
*842 net53
*843 net530
*844 net531
*845 net532
*846 net533
*847 net534
*848 net535
*849 net536
*850 net537
*851 net538
*852 net539
*853 net54
*854 net540
*855 net541
*856 net542
*857 net543
*858 net544
*859 net545
*860 net546
*861 net547
*862 net548
*863 net549
*864 net55
*865 net550
*866 net551
*867 net552
*868 net553
*869 net554
*870 net555
*871 net556
*872 net557
*873 net558
*874 net559
*875 net56
*876 net560
*877 net561
*878 net562
*879 net563
*880 net564
*881 net565
*882 net566
*883 net567
*884 net568
*885 net569
*886 net57
*887 net570
*888 net571
*889 net572
*890 net573
*891 net574
*892 net575
*893 net576
*894 net577
*895 net578
*896 net579
*897 net58
*898 net580
*899 net581
*900 net582
*901 net583
*902 net584
*903 net585
*904 net586
*905 net587
*906 net588
*907 net589
*908 net59
*909 net590
*910 net591
*911 net592
*912 net593
*913 net594
*914 net595
*915 net596
*916 net597
*917 net598
*918 net599
*919 net6
*920 net60
*921 net600
*922 net601
*923 net602
*924 net603
*925 net604
*926 net605
*927 net606
*928 net607
*929 net608
*930 net609
*931 net61
*932 net610
*933 net611
*934 net612
*935 net613
*936 net614
*937 net615
*938 net616
*939 net617
*940 net618
*941 net619
*942 net62
*943 net620
*944 net621
*945 net622
*946 net623
*947 net624
*948 net625
*949 net626
*950 net627
*951 net628
*952 net629
*953 net63
*954 net630
*955 net631
*956 net632
*957 net633
*958 net634
*959 net635
*960 net636
*961 net637
*962 net638
*963 net639
*964 net64
*965 net640
*966 net641
*967 net642
*968 net643
*969 net644
*970 net645
*971 net646
*972 net647
*973 net648
*974 net649
*975 net65
*976 net650
*977 net651
*978 net652
*979 net653
*980 net654
*981 net655
*982 net656
*983 net657
*984 net658
*985 net659
*986 net66
*987 net660
*988 net661
*989 net662
*990 net663
*991 net664
*992 net665
*993 net666
*994 net667
*995 net668
*996 net669
*997 net67
*998 net670
*999 net671
*1000 net672
*1001 net673
*1002 net674
*1003 net675
*1004 net676
*1005 net677
*1006 net678
*1007 net679
*1008 net68
*1009 net680
*1010 net681
*1011 net682
*1012 net683
*1013 net684
*1014 net685
*1015 net686
*1016 net687
*1017 net688
*1018 net689
*1019 net69
*1020 net690
*1021 net691
*1022 net692
*1023 net693
*1024 net694
*1025 net695
*1026 net696
*1027 net697
*1028 net698
*1029 net699
*1030 net7
*1031 net70
*1032 net700
*1033 net701
*1034 net702
*1035 net703
*1036 net704
*1037 net705
*1038 net706
*1039 net707
*1040 net708
*1041 net709
*1042 net71
*1043 net710
*1044 net711
*1045 net712
*1046 net713
*1047 net714
*1048 net715
*1049 net716
*1050 net717
*1051 net718
*1052 net719
*1053 net72
*1054 net720
*1055 net721
*1056 net722
*1057 net723
*1058 net724
*1059 net725
*1060 net726
*1061 net727
*1062 net728
*1063 net729
*1064 net73
*1065 net730
*1066 net731
*1067 net732
*1068 net733
*1069 net734
*1070 net735
*1071 net736
*1072 net737
*1073 net738
*1074 net739
*1075 net74
*1076 net740
*1077 net741
*1078 net742
*1079 net743
*1080 net744
*1081 net745
*1082 net746
*1083 net747
*1084 net748
*1085 net749
*1086 net75
*1087 net750
*1088 net751
*1089 net752
*1090 net753
*1091 net754
*1092 net755
*1093 net756
*1094 net757
*1095 net758
*1096 net759
*1097 net76
*1098 net760
*1099 net761
*1100 net762
*1101 net763
*1102 net764
*1103 net765
*1104 net766
*1105 net767
*1106 net768
*1107 net769
*1108 net77
*1109 net770
*1110 net771
*1111 net772
*1112 net773
*1113 net774
*1114 net775
*1115 net776
*1116 net777
*1117 net778
*1118 net779
*1119 net78
*1120 net780
*1121 net781
*1122 net782
*1123 net783
*1124 net784
*1125 net785
*1126 net786
*1127 net787
*1128 net788
*1129 net789
*1130 net79
*1131 net790
*1132 net791
*1133 net792
*1134 net793
*1135 net794
*1136 net795
*1137 net796
*1138 net797
*1139 net798
*1140 net799
*1141 net8
*1142 net80
*1143 net800
*1144 net801
*1145 net802
*1146 net803
*1147 net804
*1148 net805
*1149 net806
*1150 net807
*1151 net808
*1152 net809
*1153 net81
*1154 net810
*1155 net811
*1156 net812
*1157 net813
*1158 net814
*1159 net815
*1160 net816
*1161 net817
*1162 net818
*1163 net819
*1164 net82
*1165 net820
*1166 net821
*1167 net822
*1168 net823
*1169 net824
*1170 net825
*1171 net826
*1172 net827
*1173 net828
*1174 net829
*1175 net83
*1176 net830
*1177 net831
*1178 net832
*1179 net833
*1180 net834
*1181 net835
*1182 net836
*1183 net837
*1184 net838
*1185 net839
*1186 net84
*1187 net840
*1188 net841
*1189 net842
*1190 net843
*1191 net844
*1192 net845
*1193 net846
*1194 net847
*1195 net848
*1196 net849
*1197 net85
*1198 net850
*1199 net851
*1200 net852
*1201 net853
*1202 net854
*1203 net855
*1204 net856
*1205 net857
*1206 net858
*1207 net859
*1208 net86
*1209 net860
*1210 net861
*1211 net862
*1212 net863
*1213 net864
*1214 net865
*1215 net866
*1216 net867
*1217 net868
*1218 net869
*1219 net87
*1220 net870
*1221 net871
*1222 net872
*1223 net873
*1224 net874
*1225 net875
*1226 net876
*1227 net877
*1228 net878
*1229 net879
*1230 net88
*1231 net880
*1232 net881
*1233 net882
*1234 net883
*1235 net884
*1236 net885
*1237 net886
*1238 net887
*1239 net888
*1240 net889
*1241 net89
*1242 net890
*1243 net891
*1244 net892
*1245 net893
*1246 net894
*1247 net895
*1248 net896
*1249 net897
*1250 net898
*1251 net899
*1252 net9
*1253 net90
*1254 net900
*1255 net901
*1256 net902
*1257 net903
*1258 net904
*1259 net905
*1260 net906
*1261 net907
*1262 net908
*1263 net909
*1264 net91
*1265 net910
*1266 net911
*1267 net912
*1268 net913
*1269 net914
*1270 net915
*1271 net916
*1272 net917
*1273 net918
*1274 net919
*1275 net92
*1276 net920
*1277 net921
*1278 net922
*1279 net923
*1280 net924
*1281 net925
*1282 net926
*1283 net927
*1284 net928
*1285 net929
*1286 net93
*1287 net930
*1288 net931
*1289 net932
*1290 net933
*1291 net934
*1292 net935
*1293 net936
*1294 net937
*1295 net938
*1296 net939
*1297 net94
*1298 net940
*1299 net941
*1300 net942
*1301 net943
*1302 net944
*1303 net945
*1304 net946
*1305 net947
*1306 net948
*1307 net949
*1308 net95
*1309 net950
*1310 net951
*1311 net952
*1312 net953
*1313 net954
*1314 net955
*1315 net956
*1316 net957
*1317 net958
*1318 net959
*1319 net96
*1320 net960
*1321 net961
*1322 net962
*1323 net963
*1324 net964
*1325 net965
*1326 net966
*1327 net967
*1328 net968
*1329 net969
*1330 net97
*1331 net970
*1332 net971
*1333 net972
*1334 net973
*1335 net974
*1336 net975
*1337 net976
*1338 net977
*1339 net978
*1340 net979
*1341 net98
*1342 net980
*1343 net981
*1344 net982
*1345 net983
*1346 net984
*1347 net985
*1348 net986
*1349 net987
*1350 net988
*1351 net989
*1352 net99
*1353 net990
*1354 net991
*1355 net992
*1356 net993
*1357 net994
*1358 net995
*1359 net996
*1360 net997
*1361 net998
*1362 net999
*1363 ANTENNA_c100_X
*1364 ANTENNA_c101_A2
*1365 ANTENNA_c101_B1_N
*1366 ANTENNA_c102_A1
*1367 ANTENNA_c103_S1
*1368 ANTENNA_c104_A4
*1369 ANTENNA_c104_B1
*1370 ANTENNA_c104_X
*1371 ANTENNA_c105_A2
*1372 ANTENNA_c105_A3
*1373 ANTENNA_c106_S0
*1374 ANTENNA_c107_A1
*1375 ANTENNA_c107_A3
*1376 ANTENNA_c108_A3
*1377 ANTENNA_c109_A0
*1378 ANTENNA_c109_A3
*1379 ANTENNA_c109_S0
*1380 ANTENNA_c110_A1
*1381 ANTENNA_c114_A1
*1382 ANTENNA_c117_A1
*1383 ANTENNA_c118_B
*1384 ANTENNA_c119_CLK
*1385 ANTENNA_c119_SCE
*1386 ANTENNA_c120_A0
*1387 ANTENNA_c120_S1
*1388 ANTENNA_c121_A
*1389 ANTENNA_c122_B1_N
*1390 ANTENNA_c124_A3
*1391 ANTENNA_c131_A3
*1392 ANTENNA_c132_A1
*1393 ANTENNA_c132_B1_N
*1394 ANTENNA_c133_A1
*1395 ANTENNA_c133_A2
*1396 ANTENNA_c133_B1_N
*1397 ANTENNA_c134_X
*1398 ANTENNA_c135_X
*1399 ANTENNA_c136_A1
*1400 ANTENNA_c136_B1_N
*1401 ANTENNA_c136_X
*1402 ANTENNA_c138_A1
*1403 ANTENNA_c138_X
*1404 ANTENNA_c140_A4
*1405 ANTENNA_c140_B1
*1406 ANTENNA_c140_X
*1407 ANTENNA_c141_A1
*1408 ANTENNA_c141_A2
*1409 ANTENNA_c141_X
*1410 ANTENNA_c142_A2
*1411 ANTENNA_c142_B1_N
*1412 ANTENNA_c143_A3
*1413 ANTENNA_c143_S0
*1414 ANTENNA_c143_S1
*1415 ANTENNA_c144_A1
*1416 ANTENNA_c144_B1_N
*1417 ANTENNA_c144_X
*1418 ANTENNA_c145_A1
*1419 ANTENNA_c145_S0
*1420 ANTENNA_c146_B1_N
*1421 ANTENNA_c146_X
*1422 ANTENNA_c148_A2
*1423 ANTENNA_c149_S0
*1424 ANTENNA_c149_S1
*1425 ANTENNA_c150_A0
*1426 ANTENNA_c150_S1
*1427 ANTENNA_c151_A1
*1428 ANTENNA_c151_S0
*1429 ANTENNA_c151_S1
*1430 ANTENNA_c152_A1
*1431 ANTENNA_c152_X
*1432 ANTENNA_c153_A0
*1433 ANTENNA_c153_A3
*1434 ANTENNA_c153_X
*1435 ANTENNA_c154_B
*1436 ANTENNA_c154_Y
*1437 ANTENNA_c155_Y
*1438 ANTENNA_c156_A2
*1439 ANTENNA_c156_B1_N
*1440 ANTENNA_c157_A1
*1441 ANTENNA_c157_A2
*1442 ANTENNA_c158_Y
*1443 ANTENNA_c159_B
*1444 ANTENNA_c160_B
*1445 ANTENNA_c161_Y
*1446 ANTENNA_c163_A
*1447 ANTENNA_c164_A2
*1448 ANTENNA_c164_B1
*1449 ANTENNA_c165_Y
*1450 ANTENNA_c166_B1
*1451 ANTENNA_c166_X
*1452 ANTENNA_c168_A1
*1453 ANTENNA_c168_B1
*1454 ANTENNA_c169_A1
*1455 ANTENNA_c169_A3
*1456 ANTENNA_c169_S0
*1457 ANTENNA_c170_A
*1458 ANTENNA_c170_Y
*1459 ANTENNA_c171_B
*1460 ANTENNA_c173_A0
*1461 ANTENNA_c173_A3
*1462 ANTENNA_c174_A2
*1463 ANTENNA_c174_S0
*1464 ANTENNA_c176_A1
*1465 ANTENNA_c177_B1_N
*1466 ANTENNA_c179_A2
*1467 ANTENNA_c180_A2
*1468 ANTENNA_c180_B1_N
*1469 ANTENNA_c181_B1_N
*1470 ANTENNA_c182_X
*1471 ANTENNA_c183_B1_N
*1472 ANTENNA_c185_A2
*1473 ANTENNA_c185_B1_N
*1474 ANTENNA_c186_A2
*1475 ANTENNA_c187_A4
*1476 ANTENNA_c189_A2
*1477 ANTENNA_c189_X
*1478 ANTENNA_c190_A2
*1479 ANTENNA_c192_A2
*1480 ANTENNA_c192_B1
*1481 ANTENNA_c192_X
*1482 ANTENNA_c193_B1_N
*1483 ANTENNA_c194_X
*1484 ANTENNA_c195_A2
*1485 ANTENNA_c195_A4
*1486 ANTENNA_c196_A2
*1487 ANTENNA_c196_A3
*1488 ANTENNA_c197_CLK_N
*1489 ANTENNA_c197_Q
*1490 ANTENNA_c198_A2
*1491 ANTENNA_c198_B1_N
*1492 ANTENNA_c200_A2
*1493 ANTENNA_c200_A3
*1494 ANTENNA_c200_B1
*1495 ANTENNA_c201_CLK_N
*1496 ANTENNA_c201_RESET_B
*1497 ANTENNA_c202_A2
*1498 ANTENNA_c202_A3
*1499 ANTENNA_c202_A4
*1500 ANTENNA_c202_X
*1501 ANTENNA_c205_A2
*1502 ANTENNA_c206_A3
*1503 ANTENNA_c208_B1
*1504 ANTENNA_c208_X
*1505 ANTENNA_c210_A1
*1506 ANTENNA_c210_S1
*1507 ANTENNA_c211_X
*1508 ANTENNA_c212_B1_N
*1509 ANTENNA_c212_X
*1510 ANTENNA_c213_X
*1511 ANTENNA_c214_A1
*1512 ANTENNA_c215_A1
*1513 ANTENNA_c215_A3
*1514 ANTENNA_c215_S1
*1515 ANTENNA_c216_A2
*1516 ANTENNA_c216_A3
*1517 ANTENNA_c217_A2
*1518 ANTENNA_c217_A3
*1519 ANTENNA_c217_S1
*1520 ANTENNA_c217_X
*1521 ANTENNA_c218_A3
*1522 ANTENNA_c218_S0
*1523 ANTENNA_c218_S1
*1524 ANTENNA_c219_A2
*1525 ANTENNA_c219_S1
*1526 ANTENNA_c220_X
*1527 ANTENNA_c221_A
*1528 ANTENNA_c222_A1
*1529 ANTENNA_c222_A2
*1530 ANTENNA_c222_A3
*1531 ANTENNA_c222_S0
*1532 ANTENNA_c223_A1
*1533 ANTENNA_c223_A3
*1534 ANTENNA_c223_X
*1535 ANTENNA_c224_A4
*1536 ANTENNA_c226_A2
*1537 ANTENNA_c226_A3
*1538 ANTENNA_c226_A4
*1539 ANTENNA_c227_A1
*1540 ANTENNA_c227_A3
*1541 ANTENNA_c227_S0
*1542 ANTENNA_c229_A2
*1543 ANTENNA_c229_A3
*1544 ANTENNA_c229_A4
*1545 ANTENNA_c230_A1
*1546 ANTENNA_c230_A2
*1547 ANTENNA_c231_A0
*1548 ANTENNA_c231_S0
*1549 ANTENNA_c233_CLK
*1550 ANTENNA_c233_SCE
*1551 ANTENNA_c233_SET_B
*1552 ANTENNA_c236_A
*1553 ANTENNA_c238_A1
*1554 ANTENNA_c239_A2
*1555 ANTENNA_c241_X
*1556 ANTENNA_c242_A1
*1557 ANTENNA_c242_B1_N
*1558 ANTENNA_c245_A
*1559 ANTENNA_c247_B
*1560 ANTENNA_c250_A1
*1561 ANTENNA_c252_A1
*1562 ANTENNA_c252_A2
*1563 ANTENNA_c253_A1
*1564 ANTENNA_c253_A3
*1565 ANTENNA_c253_S0
*1566 ANTENNA_c255_A2
*1567 ANTENNA_c255_X
*1568 ANTENNA_c256_A1
*1569 ANTENNA_c256_A2
*1570 ANTENNA_c256_A3
*1571 ANTENNA_c259_A2
*1572 ANTENNA_c259_A4
*1573 ANTENNA_c261_A4
*1574 ANTENNA_c262_A2
*1575 ANTENNA_c262_X
*1576 ANTENNA_c263_A4
*1577 ANTENNA_c263_B1
*1578 ANTENNA_c264_A1
*1579 ANTENNA_c264_B1_N
*1580 ANTENNA_c265_A
*1581 ANTENNA_c266_A
*1582 ANTENNA_c268_A
*1583 ANTENNA_c269_A
*1584 ANTENNA_c269_B
*1585 ANTENNA_c272_X
*1586 ANTENNA_c274_B
*1587 ANTENNA_c276_B
*1588 ANTENNA_c277_B
*1589 ANTENNA_c277_Y
*1590 ANTENNA_c278_A2
*1591 ANTENNA_c278_X
*1592 ANTENNA_c280_X
*1593 ANTENNA_c281_A1
*1594 ANTENNA_c281_A2
*1595 ANTENNA_c281_A3
*1596 ANTENNA_c281_X
*1597 ANTENNA_c283_A1
*1598 ANTENNA_c283_S0
*1599 ANTENNA_c284_A1
*1600 ANTENNA_c284_A3
*1601 ANTENNA_c284_S0
*1602 ANTENNA_c284_S1
*1603 ANTENNA_c285_A1
*1604 ANTENNA_c285_A3
*1605 ANTENNA_c285_X
*1606 ANTENNA_c286_A2
*1607 ANTENNA_c286_B1_N
*1608 ANTENNA_c289_A1
*1609 ANTENNA_c289_A2
*1610 ANTENNA_c291_Y
*1611 ANTENNA_c293_B1_N
*1612 ANTENNA_c296_B1
*1613 ANTENNA_c298_A
*1614 ANTENNA_c299_A
*1615 ANTENNA_c300_A
*1616 ANTENNA_c301_X
*1617 ANTENNA_c302_B1_N
*1618 ANTENNA_c304_Y
*1619 ANTENNA_c305_X
*1620 ANTENNA_c306_A2
*1621 ANTENNA_c306_B1_N
*1622 ANTENNA_c306_X
*1623 ANTENNA_c307_A2
*1624 ANTENNA_c307_A3
*1625 ANTENNA_c307_S1
*1626 ANTENNA_c307_X
*1627 ANTENNA_c309_A2
*1628 ANTENNA_c309_X
*1629 ANTENNA_c311_A2
*1630 ANTENNA_c311_X
*1631 ANTENNA_c312_A0
*1632 ANTENNA_c312_A2
*1633 ANTENNA_c312_S0
*1634 ANTENNA_c312_S1
*1635 ANTENNA_c312_X
*1636 ANTENNA_c313_A2
*1637 ANTENNA_c313_X
*1638 ANTENNA_c315_A
*1639 ANTENNA_c315_B
*1640 ANTENNA_c316_A1
*1641 ANTENNA_c317_X
*1642 ANTENNA_c318_A1
*1643 ANTENNA_c318_A2
*1644 ANTENNA_c318_X
*1645 ANTENNA_c319_A2
*1646 ANTENNA_c319_B1_N
*1647 ANTENNA_c320_B1_N
*1648 ANTENNA_c321_X
*1649 ANTENNA_c323_A2
*1650 ANTENNA_c323_A3
*1651 ANTENNA_c323_S0
*1652 ANTENNA_c323_S1
*1653 ANTENNA_c324_Y
*1654 ANTENNA_c326_A4
*1655 ANTENNA_c328_A1
*1656 ANTENNA_c328_A3
*1657 ANTENNA_c330_A2
*1658 ANTENNA_c331_A2
*1659 ANTENNA_c331_B1
*1660 ANTENNA_c332_A1
*1661 ANTENNA_c332_A2
*1662 ANTENNA_c332_B1_N
*1663 ANTENNA_c333_A
*1664 ANTENNA_c333_Y
*1665 ANTENNA_c334_B1
*1666 ANTENNA_c335_CLK
*1667 ANTENNA_c335_D
*1668 ANTENNA_c335_RESET_B
*1669 ANTENNA_c335_SCD
*1670 ANTENNA_c335_SCE
*1671 ANTENNA_c336_CLK_N
*1672 ANTENNA_c336_RESET_B
*1673 ANTENNA_c336_SCD
*1674 ANTENNA_c336_SCE
*1675 ANTENNA_c337_A2
*1676 ANTENNA_c337_A3
*1677 ANTENNA_c337_S1
*1678 ANTENNA_c337_X
*1679 ANTENNA_c338_A0
*1680 ANTENNA_c338_A1
*1681 ANTENNA_c338_A3
*1682 ANTENNA_c338_S0
*1683 ANTENNA_c338_S1
*1684 ANTENNA_c339_Y
*1685 ANTENNA_c341_A2
*1686 ANTENNA_c341_B1
*1687 ANTENNA_c342_CLK
*1688 ANTENNA_c342_RESET_B
*1689 ANTENNA_c343_CLK_N
*1690 ANTENNA_c343_D
*1691 ANTENNA_c343_Q
*1692 ANTENNA_c343_RESET_B
*1693 ANTENNA_c343_SCE
*1694 ANTENNA_c344_A2
*1695 ANTENNA_c344_A3
*1696 ANTENNA_c345_A3
*1697 ANTENNA_c345_S1
*1698 ANTENNA_c346_A1
*1699 ANTENNA_c346_B1
*1700 ANTENNA_c346_X
*1701 ANTENNA_c347_CLK_N
*1702 ANTENNA_c347_RESET_B
*1703 ANTENNA_c347_SCD
*1704 ANTENNA_c347_SET_B
*1705 ANTENNA_c348_A2
*1706 ANTENNA_c348_A4
*1707 ANTENNA_c348_B1
*1708 ANTENNA_c348_X
*1709 ANTENNA_c349_A1
*1710 ANTENNA_c349_A2
*1711 ANTENNA_c349_A3
*1712 ANTENNA_c349_S0
*1713 ANTENNA_c350_A2
*1714 ANTENNA_c350_S1
*1715 ANTENNA_c351_CLK
*1716 ANTENNA_c351_RESET_B
*1717 ANTENNA_c351_SET_B
*1718 ANTENNA_c352_A1
*1719 ANTENNA_c352_A2
*1720 ANTENNA_c352_B1_N
*1721 ANTENNA_c354_A2
*1722 ANTENNA_c354_B1_N
*1723 ANTENNA_c354_X
*1724 ANTENNA_c357_A0
*1725 ANTENNA_c357_A2
*1726 ANTENNA_c357_A3
*1727 ANTENNA_c357_S1
*1728 ANTENNA_c358_A2
*1729 ANTENNA_c358_A3
*1730 ANTENNA_c358_B1
*1731 ANTENNA_c360_A1
*1732 ANTENNA_c360_A3
*1733 ANTENNA_c360_S0
*1734 ANTENNA_c360_S1
*1735 ANTENNA_c361_A1
*1736 ANTENNA_c361_B1_N
*1737 ANTENNA_c362_A2
*1738 ANTENNA_c362_B1
*1739 ANTENNA_c362_X
*1740 ANTENNA_c364_A1
*1741 ANTENNA_c364_A2
*1742 ANTENNA_c365_A0
*1743 ANTENNA_c365_A1
*1744 ANTENNA_c365_A2
*1745 ANTENNA_c365_A3
*1746 ANTENNA_c366_A2
*1747 ANTENNA_c367_A1
*1748 ANTENNA_c367_S0
*1749 ANTENNA_c367_S1
*1750 ANTENNA_c368_CLK_N
*1751 ANTENNA_c368_RESET_B
*1752 ANTENNA_c368_SET_B
*1753 ANTENNA_c369_A2
*1754 ANTENNA_c369_B1_N
*1755 ANTENNA_c370_A0
*1756 ANTENNA_c370_A1
*1757 ANTENNA_c370_A2
*1758 ANTENNA_c370_S1
*1759 ANTENNA_c371_A2
*1760 ANTENNA_c371_A3
*1761 ANTENNA_c371_S0
*1762 ANTENNA_c372_A0
*1763 ANTENNA_c372_S0
*1764 ANTENNA_c373_A3
*1765 ANTENNA_c392_A2
*1766 ANTENNA_c392_A3
*1767 ANTENNA_c393_A1
*1768 ANTENNA_c393_A2
*1769 ANTENNA_c393_A3
*1770 ANTENNA_c394_A0
*1771 ANTENNA_c394_S0
*1772 ANTENNA_c395_A0
*1773 ANTENNA_c395_A2
*1774 ANTENNA_c395_S0
*1775 ANTENNA_c396_B
*1776 ANTENNA_c398_X
*1777 ANTENNA_c399_A
*1778 ANTENNA_c400_A2
*1779 ANTENNA_c400_B1_N
*1780 ANTENNA_c401_Y
*1781 ANTENNA_c405_Y
*1782 ANTENNA_c406_B
*1783 ANTENNA_c408_X
*1784 ANTENNA_c412_A1
*1785 ANTENNA_c415_A3
*1786 ANTENNA_c415_X
*1787 ANTENNA_c417_A1
*1788 ANTENNA_c417_A3
*1789 ANTENNA_c417_X
*1790 ANTENNA_c420_B
*1791 ANTENNA_c421_CLK_N
*1792 ANTENNA_c421_D
*1793 ANTENNA_c421_Q
*1794 ANTENNA_c421_RESET_B
*1795 ANTENNA_c421_SCD
*1796 ANTENNA_c421_SCE
*1797 ANTENNA_c422_A1
*1798 ANTENNA_c422_A3
*1799 ANTENNA_c423_A0
*1800 ANTENNA_c423_A1
*1801 ANTENNA_c423_A3
*1802 ANTENNA_c423_S0
*1803 ANTENNA_c424_A2
*1804 ANTENNA_c424_A3
*1805 ANTENNA_c424_B1
*1806 ANTENNA_c425_A2
*1807 ANTENNA_c426_CLK
*1808 ANTENNA_c426_SCD
*1809 ANTENNA_c428_CLK_N
*1810 ANTENNA_c428_D
*1811 ANTENNA_c428_RESET_B
*1812 ANTENNA_c429_A3
*1813 ANTENNA_c431_CLK
*1814 ANTENNA_c431_D
*1815 ANTENNA_c431_SCE
*1816 ANTENNA_c432_A1
*1817 ANTENNA_c432_A3
*1818 ANTENNA_c432_S0
*1819 ANTENNA_c432_S1
*1820 ANTENNA_c433_A1
*1821 ANTENNA_c433_A2
*1822 ANTENNA_c433_A3
*1823 ANTENNA_c433_S0
*1824 ANTENNA_c433_S1
*1825 ANTENNA_c434_A1
*1826 ANTENNA_c434_S1
*1827 ANTENNA_c435_CLK
*1828 ANTENNA_c435_SCE
*1829 ANTENNA_c435_SET_B
*1830 ANTENNA_c436_A1
*1831 ANTENNA_c436_A2
*1832 ANTENNA_c437_A1
*1833 ANTENNA_c437_A3
*1834 ANTENNA_c437_S0
*1835 ANTENNA_c438_A
*1836 ANTENNA_c438_X
*1837 ANTENNA_c439_A1
*1838 ANTENNA_c439_X
*1839 ANTENNA_c441_B
*1840 ANTENNA_c442_X
*1841 ANTENNA_c443_A1
*1842 ANTENNA_c443_A2
*1843 ANTENNA_c443_A3
*1844 ANTENNA_c443_B1
*1845 ANTENNA_c444_A
*1846 ANTENNA_c444_B
*1847 ANTENNA_c445_A
*1848 ANTENNA_c445_B
*1849 ANTENNA_c446_A
*1850 ANTENNA_c447_A1
*1851 ANTENNA_c447_A2
*1852 ANTENNA_c447_A3
*1853 ANTENNA_c447_B1
*1854 ANTENNA_c449_CLK_N
*1855 ANTENNA_c449_SCE
*1856 ANTENNA_c449_SET_B
*1857 ANTENNA_c450_A2
*1858 ANTENNA_c450_A4
*1859 ANTENNA_c450_B1
*1860 ANTENNA_c451_A1
*1861 ANTENNA_c451_A2
*1862 ANTENNA_c451_A3
*1863 ANTENNA_c451_B1
*1864 ANTENNA_c451_X
*1865 ANTENNA_c452_A2
*1866 ANTENNA_c453_CLK
*1867 ANTENNA_c453_SCD
*1868 ANTENNA_c453_SCE
*1869 ANTENNA_c453_SET_B
*1870 ANTENNA_c454_A1
*1871 ANTENNA_c454_A2
*1872 ANTENNA_c454_A4
*1873 ANTENNA_c455_A1
*1874 ANTENNA_c455_A3
*1875 ANTENNA_c455_S0
*1876 ANTENNA_c456_A0
*1877 ANTENNA_c456_A2
*1878 ANTENNA_c456_A3
*1879 ANTENNA_c456_S1
*1880 ANTENNA_c457_CLK
*1881 ANTENNA_c457_Q