*SPEF "ieee 1481-1999"
*DESIGN "netlist_0"
*DATE "19:52:27 Wednesday August 14, 2024"
*VENDOR "The OpenROAD Project"
*PROGRAM "OpenROAD"
*VERSION "d423155d69de7f683a23f6916ead418a615ad4ad"
*DESIGN_FLOW "NAME_SCOPE LOCAL" "PIN_CAP NONE"
*DIVIDER /
*DELIMITER :
*BUS_DELIMITER []
*T_UNIT 1 NS
*C_UNIT 1 PF
*R_UNIT 1 OHM
*L_UNIT 1 HENRY

*NAME_MAP
*3 clk
*4 in0
*5 in1
*6 in10
*7 in11
*8 in12
*9 in13
*10 in14
*11 in15
*12 in16
*13 in17
*14 in18
*15 in19
*16 in2
*17 in20
*18 in21
*19 in22
*20 in23
*21 in24
*22 in25
*23 in26
*24 in27
*25 in28
*26 in29
*27 in3
*28 in30
*29 in31
*30 in32
*31 in33
*32 in34
*33 in35
*34 in36
*35 in37
*36 in38
*37 in39
*38 in4
*39 in40
*40 in41
*41 in42
*42 in43
*43 in44
*44 in45
*45 in46
*46 in47
*47 in48
*48 in49
*49 in5
*50 in50
*51 in51
*52 in52
*53 in53
*54 in54
*55 in55
*56 in56
*57 in57
*58 in58
*59 in59
*60 in6
*61 in60
*62 in61
*63 in62
*64 in63
*65 in64
*66 in65
*67 in66
*68 in67
*69 in68
*70 in69
*71 in7
*72 in70
*73 in71
*74 in72
*75 in73
*76 in74
*77 in75
*78 in76
*79 in77
*80 in78
*81 in79
*82 in8
*83 in80
*84 in81
*85 in82
*86 in83
*87 in84
*88 in85
*89 in86
*90 in87
*91 in88
*92 in89
*93 in9
*94 in90
*95 in91
*96 in92
*97 in93
*98 in94
*99 in95
*100 in96
*101 in97
*102 in98
*103 in99
*104 out0
*105 out1
*106 out10
*107 out11
*108 out12
*109 out13
*110 out14
*111 out15
*112 out16
*113 out17
*114 out18
*115 out19
*116 out2
*117 out20
*118 out21
*119 out22
*120 out23
*121 out24
*122 out25
*123 out26
*124 out27
*125 out28
*126 out29
*127 out3
*128 out30
*129 out31
*130 out32
*131 out33
*132 out34
*133 out35
*134 out36
*135 out37
*136 out38
*137 out39
*138 out4
*139 out40
*140 out41
*141 out42
*142 out43
*143 out44
*144 out45
*145 out46
*146 out47
*147 out48
*148 out49
*149 out5
*150 out50
*151 out51
*152 out52
*153 out53
*154 out54
*155 out55
*156 out56
*157 out57
*158 out58
*159 out59
*160 out6
*161 out60
*162 out61
*163 out62
*164 out63
*165 out64
*166 out65
*167 out66
*168 out67
*169 out68
*170 out69
*171 out7
*172 out70
*173 out71
*174 out72
*175 out73
*176 out74
*177 out75
*178 out76
*179 out77
*180 out78
*181 out79
*182 out8
*183 out80
*184 out81
*185 out82
*186 out83
*187 out84
*188 out85
*189 out86
*190 out87
*191 out88
*192 out89
*193 out9
*194 out90
*195 out91
*196 out92
*197 out93
*198 out94
*199 out95
*200 out96
*201 out97
*202 out98
*203 out99
*204 rst
*205 clknet_0_clk
*206 clknet_0_net506
*207 clknet_0_net561
*208 clknet_0_net562
*209 clknet_0_net563
*210 clknet_1_0__leaf_net506
*211 clknet_1_0__leaf_net561
*212 clknet_1_0__leaf_net562
*213 clknet_1_0__leaf_net563
*214 clknet_1_1__leaf_net506
*215 clknet_1_1__leaf_net561
*216 clknet_1_1__leaf_net562
*217 clknet_1_1__leaf_net563
*218 clknet_2_0__leaf_clk
*219 clknet_2_1__leaf_clk
*220 clknet_2_2__leaf_clk
*221 clknet_2_3__leaf_clk
*222 net0
*223 net1
*224 net10
*225 net100
*226 net1000
*227 net1001
*228 net1002
*229 net1003
*230 net1004
*231 net1005
*232 net1006
*233 net1007
*234 net1008
*235 net1009
*236 net101
*237 net1010
*238 net1011
*239 net1012
*240 net1013
*241 net1014
*242 net1015
*243 net1016
*244 net1017
*245 net1018
*246 net1019
*247 net102
*248 net1020
*249 net1021
*250 net1022
*251 net1023
*252 net1024
*253 net1025
*254 net1026
*255 net1027
*256 net1028
*257 net1029
*258 net103
*259 net1030
*260 net1031
*261 net1032
*262 net1033
*263 net1034
*264 net1035
*265 net1036
*266 net1037
*267 net1038
*268 net1039
*269 net104
*270 net1040
*271 net1041
*272 net1042
*273 net1043
*274 net1044
*275 net1045
*276 net1046
*277 net1047
*278 net1048
*279 net1049
*280 net105
*281 net1050
*282 net1051
*283 net1052
*284 net1053
*285 net1054
*286 net1055
*287 net1056
*288 net1057
*289 net1058
*290 net1059
*291 net106
*292 net1060
*293 net1061
*294 net1062
*295 net1063
*296 net1064
*297 net1065
*298 net1066
*299 net1067
*300 net1068
*301 net1069
*302 net107
*303 net1070
*304 net1071
*305 net1072
*306 net1073
*307 net1074
*308 net1075
*309 net1076
*310 net1077
*311 net1078
*312 net1079
*313 net108
*314 net1080
*315 net1081
*316 net1082
*317 net1083
*318 net1084
*319 net1085
*320 net1086
*321 net109
*322 net11
*323 net110
*324 net111
*325 net112
*326 net113
*327 net114
*328 net115
*329 net116
*330 net117
*331 net118
*332 net119
*333 net12
*334 net120
*335 net121
*336 net122
*337 net123
*338 net124
*339 net125
*340 net126
*341 net127
*342 net128
*343 net129
*344 net13
*345 net130
*346 net131
*347 net132
*348 net133
*349 net134
*350 net135
*351 net136
*352 net137
*353 net138
*354 net139
*355 net14
*356 net140
*357 net141
*358 net142
*359 net143
*360 net144
*361 net145
*362 net146
*363 net147
*364 net148
*365 net149
*366 net15
*367 net150
*368 net151
*369 net152
*370 net153
*371 net154
*372 net155
*373 net156
*374 net157
*375 net158
*376 net159
*377 net16
*378 net160
*379 net161
*380 net162
*381 net163
*382 net164
*383 net165
*384 net166
*385 net167
*386 net168
*387 net169
*388 net17
*389 net170
*390 net171
*391 net172
*392 net173
*393 net174
*394 net175
*395 net176
*396 net177
*397 net178
*398 net179
*399 net18
*400 net180
*401 net181
*402 net182
*403 net183
*404 net184
*405 net185
*406 net186
*407 net187
*408 net188
*409 net189
*410 net19
*411 net190
*412 net191
*413 net192
*414 net193
*415 net194
*416 net195
*417 net196
*418 net197
*419 net198
*420 net199
*421 net2
*422 net20
*423 net200
*424 net201
*425 net202
*426 net203
*427 net204
*428 net205
*429 net206
*430 net207
*431 net208
*432 net209
*433 net21
*434 net210
*435 net211
*436 net212
*437 net213
*438 net214
*439 net215
*440 net216
*441 net217
*442 net218
*443 net219
*444 net22
*445 net220
*446 net221
*447 net222
*448 net223
*449 net224
*450 net225
*451 net226
*452 net227
*453 net228
*454 net229
*455 net23
*456 net230
*457 net231
*458 net232
*459 net233
*460 net234
*461 net235
*462 net236
*463 net237
*464 net238
*465 net239
*466 net24
*467 net240
*468 net241
*469 net242
*470 net243
*471 net244
*472 net245
*473 net246
*474 net247
*475 net248
*476 net249
*477 net25
*478 net250
*479 net251
*480 net252
*481 net253
*482 net254
*483 net255
*484 net256
*485 net257
*486 net258
*487 net259
*488 net26
*489 net260
*490 net261
*491 net262
*492 net263
*493 net264
*494 net265
*495 net266
*496 net267
*497 net268
*498 net269
*499 net27
*500 net270
*501 net271
*502 net272
*503 net273
*504 net274
*505 net275
*506 net276
*507 net277
*508 net278
*509 net279
*510 net28
*511 net280
*512 net281
*513 net282
*514 net283
*515 net284
*516 net285
*517 net286
*518 net287
*519 net288
*520 net289
*521 net29
*522 net290
*523 net291
*524 net292
*525 net293
*526 net294
*527 net295
*528 net296
*529 net297
*530 net298
*531 net299
*532 net3
*533 net30
*534 net300
*535 net301
*536 net302
*537 net303
*538 net304
*539 net305
*540 net306
*541 net307
*542 net308
*543 net309
*544 net31
*545 net310
*546 net311
*547 net312
*548 net313
*549 net314
*550 net315
*551 net316
*552 net317
*553 net318
*554 net319
*555 net32
*556 net320
*557 net321
*558 net322
*559 net323
*560 net324
*561 net325
*562 net326
*563 net327
*564 net328
*565 net329
*566 net33
*567 net330
*568 net331
*569 net332
*570 net333
*571 net334
*572 net335
*573 net336
*574 net337
*575 net338
*576 net339
*577 net34
*578 net340
*579 net341
*580 net342
*581 net343
*582 net344
*583 net345
*584 net346
*585 net347
*586 net348
*587 net349
*588 net35
*589 net350
*590 net351
*591 net352
*592 net353
*593 net354
*594 net355
*595 net356
*596 net357
*597 net358
*598 net359
*599 net36
*600 net360
*601 net361
*602 net362
*603 net363
*604 net364
*605 net365
*606 net366
*607 net367
*608 net368
*609 net369
*610 net37
*611 net370
*612 net371
*613 net372
*614 net373
*615 net374
*616 net375
*617 net376
*618 net377
*619 net378
*620 net379
*621 net38
*622 net380
*623 net381
*624 net382
*625 net383
*626 net384
*627 net385
*628 net386
*629 net387
*630 net388
*631 net389
*632 net39
*633 net390
*634 net391
*635 net392
*636 net393
*637 net394
*638 net395
*639 net396
*640 net397
*641 net398
*642 net399
*643 net4
*644 net40
*645 net400
*646 net401
*647 net402
*648 net403
*649 net404
*650 net405
*651 net406
*652 net407
*653 net408
*654 net409
*655 net41
*656 net410
*657 net411
*658 net412
*659 net413
*660 net414
*661 net415
*662 net416
*663 net417
*664 net418
*665 net419
*666 net42
*667 net420
*668 net421
*669 net422
*670 net423
*671 net424
*672 net425
*673 net426
*674 net427
*675 net428
*676 net429
*677 net43
*678 net430
*679 net431
*680 net432
*681 net433
*682 net434
*683 net435
*684 net436
*685 net437
*686 net438
*687 net439
*688 net44
*689 net440
*690 net441
*691 net442
*692 net443
*693 net444
*694 net445
*695 net446
*696 net447
*697 net448
*698 net449
*699 net45
*700 net450
*701 net451
*702 net452
*703 net453
*704 net454
*705 net455
*706 net456
*707 net457
*708 net458
*709 net459
*710 net46
*711 net460
*712 net461
*713 net462
*714 net463
*715 net464
*716 net465
*717 net466
*718 net467
*719 net468
*720 net469
*721 net47
*722 net470
*723 net471
*724 net472
*725 net473
*726 net474
*727 net475
*728 net476
*729 net477
*730 net478
*731 net479
*732 net48
*733 net480
*734 net481
*735 net482
*736 net483
*737 net484
*738 net485
*739 net486
*740 net487
*741 net488
*742 net489
*743 net49
*744 net490
*745 net491
*746 net492
*747 net493
*748 net494
*749 net495
*750 net496
*751 net497
*752 net498
*753 net499
*754 net5
*755 net50
*756 net500
*757 net501
*758 net502
*759 net503
*760 net504
*761 net505
*762 net506
*763 net507
*764 net508
*765 net509
*766 net51
*767 net510
*768 net511
*769 net512
*770 net513
*771 net514
*772 net515
*773 net516
*774 net517
*775 net518
*776 net519
*777 net52
*778 net520
*779 net521
*780 net522
*781 net523
*782 net524
*783 net525
*784 net526
*785 net527
*786 net528
*787 net529
*788 net53
*789 net530
*790 net531
*791 net532
*792 net533
*793 net534
*794 net535
*795 net536
*796 net537
*797 net538
*798 net539
*799 net54
*800 net540
*801 net541
*802 net542
*803 net543
*804 net544
*805 net545
*806 net546
*807 net547
*808 net548
*809 net549
*810 net55
*811 net550
*812 net551
*813 net552
*814 net553
*815 net554
*816 net555
*817 net556
*818 net557
*819 net558
*820 net559
*821 net56
*822 net560
*823 net561
*824 net562
*825 net563
*826 net564
*827 net565
*828 net566
*829 net567
*830 net568
*831 net569
*832 net57
*833 net570
*834 net571
*835 net572
*836 net573
*837 net574
*838 net575
*839 net576
*840 net577
*841 net578
*842 net579
*843 net58
*844 net580
*845 net581
*846 net582
*847 net583
*848 net584
*849 net585
*850 net586
*851 net587
*852 net588
*853 net589
*854 net59
*855 net590
*856 net591
*857 net592
*858 net593
*859 net594
*860 net595
*861 net596
*862 net597
*863 net598
*864 net599
*865 net6
*866 net60
*867 net600
*868 net601
*869 net602
*870 net603
*871 net604
*872 net605
*873 net606
*874 net607
*875 net608
*876 net609
*877 net61
*878 net610
*879 net611
*880 net612
*881 net613
*882 net614
*883 net615
*884 net616
*885 net617
*886 net618
*887 net619
*888 net62
*889 net620
*890 net621
*891 net622
*892 net623
*893 net624
*894 net625
*895 net626
*896 net627
*897 net628
*898 net629
*899 net63
*900 net630
*901 net631
*902 net632
*903 net633
*904 net634
*905 net635
*906 net636
*907 net637
*908 net638
*909 net639
*910 net64
*911 net640
*912 net641
*913 net642
*914 net643
*915 net644
*916 net645
*917 net646
*918 net647
*919 net648
*920 net649
*921 net65
*922 net650
*923 net651
*924 net652
*925 net653
*926 net654
*927 net655
*928 net656
*929 net657
*930 net658
*931 net659
*932 net66
*933 net660
*934 net661
*935 net662
*936 net663
*937 net664
*938 net665
*939 net666
*940 net667
*941 net668
*942 net669
*943 net67
*944 net670
*945 net671
*946 net672
*947 net673
*948 net674
*949 net675
*950 net676
*951 net677
*952 net678
*953 net679
*954 net68
*955 net680
*956 net681
*957 net682
*958 net683
*959 net684
*960 net685
*961 net686
*962 net687
*963 net688
*964 net689
*965 net69
*966 net690
*967 net691
*968 net692
*969 net693
*970 net694
*971 net695
*972 net696
*973 net697
*974 net698
*975 net699
*976 net7
*977 net70
*978 net700
*979 net701
*980 net702
*981 net703
*982 net704
*983 net705
*984 net706
*985 net707
*986 net708
*987 net709
*988 net71
*989 net710
*990 net711
*991 net712
*992 net713
*993 net714
*994 net715
*995 net716
*996 net717
*997 net718
*998 net719
*999 net72
*1000 net720
*1001 net721
*1002 net722
*1003 net723
*1004 net724
*1005 net725
*1006 net726
*1007 net727
*1008 net728
*1009 net729
*1010 net73
*1011 net730
*1012 net731
*1013 net732
*1014 net733
*1015 net734
*1016 net735
*1017 net736
*1018 net737
*1019 net738
*1020 net739
*1021 net74
*1022 net740
*1023 net741
*1024 net742
*1025 net743
*1026 net744
*1027 net745
*1028 net746
*1029 net747
*1030 net748
*1031 net749
*1032 net75
*1033 net750
*1034 net751
*1035 net752
*1036 net753
*1037 net754
*1038 net755
*1039 net756
*1040 net757
*1041 net758
*1042 net759
*1043 net76
*1044 net760
*1045 net761
*1046 net762
*1047 net763
*1048 net764
*1049 net765
*1050 net766
*1051 net767
*1052 net768
*1053 net769
*1054 net77
*1055 net770
*1056 net771
*1057 net772
*1058 net773
*1059 net774
*1060 net775
*1061 net776
*1062 net777
*1063 net778
*1064 net779
*1065 net78
*1066 net780
*1067 net781
*1068 net782
*1069 net783
*1070 net784
*1071 net785
*1072 net786
*1073 net787
*1074 net788
*1075 net789
*1076 net79
*1077 net790
*1078 net791
*1079 net792
*1080 net793
*1081 net794
*1082 net795
*1083 net796
*1084 net797
*1085 net798
*1086 net799
*1087 net8
*1088 net80
*1089 net800
*1090 net801
*1091 net802
*1092 net803
*1093 net804
*1094 net805
*1095 net806
*1096 net807
*1097 net808
*1098 net809
*1099 net81
*1100 net810
*1101 net811
*1102 net812
*1103 net813
*1104 net814
*1105 net815
*1106 net816
*1107 net817
*1108 net818
*1109 net819
*1110 net82
*1111 net820
*1112 net821
*1113 net822
*1114 net823
*1115 net824
*1116 net825
*1117 net826
*1118 net827
*1119 net828
*1120 net829
*1121 net83
*1122 net830
*1123 net831
*1124 net832
*1125 net833
*1126 net834
*1127 net835
*1128 net836
*1129 net837
*1130 net838
*1131 net839
*1132 net84
*1133 net840
*1134 net841
*1135 net842
*1136 net843
*1137 net844
*1138 net845
*1139 net846
*1140 net847
*1141 net848
*1142 net849
*1143 net85
*1144 net850
*1145 net851
*1146 net852
*1147 net853
*1148 net854
*1149 net855
*1150 net856
*1151 net857
*1152 net858
*1153 net859
*1154 net86
*1155 net860
*1156 net861
*1157 net862
*1158 net863
*1159 net864
*1160 net865
*1161 net866
*1162 net867
*1163 net868
*1164 net869
*1165 net87
*1166 net870
*1167 net871
*1168 net872
*1169 net873
*1170 net874
*1171 net875
*1172 net876
*1173 net877
*1174 net878
*1175 net879
*1176 net88
*1177 net880
*1178 net881
*1179 net882
*1180 net883
*1181 net884
*1182 net885
*1183 net886
*1184 net887
*1185 net888
*1186 net889
*1187 net89
*1188 net890
*1189 net891
*1190 net892
*1191 net893
*1192 net894
*1193 net895
*1194 net896
*1195 net897
*1196 net898
*1197 net899
*1198 net9
*1199 net90
*1200 net900
*1201 net901
*1202 net902
*1203 net903
*1204 net904
*1205 net905
*1206 net906
*1207 net907
*1208 net908
*1209 net909
*1210 net91
*1211 net910
*1212 net911
*1213 net912
*1214 net913
*1215 net914
*1216 net915
*1217 net916
*1218 net917
*1219 net918
*1220 net919
*1221 net92
*1222 net920
*1223 net921
*1224 net922
*1225 net923
*1226 net924
*1227 net925
*1228 net926
*1229 net927
*1230 net928
*1231 net929
*1232 net93
*1233 net930
*1234 net931
*1235 net932
*1236 net933
*1237 net934
*1238 net935
*1239 net936
*1240 net937
*1241 net938
*1242 net939
*1243 net94
*1244 net940
*1245 net941
*1246 net942
*1247 net943
*1248 net944
*1249 net945
*1250 net946
*1251 net947
*1252 net948
*1253 net949
*1254 net95
*1255 net950
*1256 net951
*1257 net952
*1258 net953
*1259 net954
*1260 net955
*1261 net956
*1262 net957
*1263 net958
*1264 net959
*1265 net96
*1266 net960
*1267 net961
*1268 net962
*1269 net963
*1270 net964
*1271 net965
*1272 net966
*1273 net967
*1274 net968
*1275 net969
*1276 net97
*1277 net970
*1278 net971
*1279 net972
*1280 net973
*1281 net974
*1282 net975
*1283 net976
*1284 net977
*1285 net978
*1286 net979
*1287 net98
*1288 net980
*1289 net981
*1290 net982
*1291 net983
*1292 net984
*1293 net985
*1294 net986
*1295 net987
*1296 net988
*1297 net989
*1298 net99
*1299 net990
*1300 net991
*1301 net992
*1302 net993
*1303 net994
*1304 net995
*1305 net996
*1306 net997
*1307 net998
*1308 net999
*1309 ANTENNA_1
*1310 ANTENNA_10
*1311 ANTENNA_11
*1312 ANTENNA_12
*1313 ANTENNA_13
*1314 ANTENNA_14
*1315 ANTENNA_15
*1316 ANTENNA_2
*1317 ANTENNA_3
*1318 ANTENNA_4
*1319 ANTENNA_5
*1320 ANTENNA_6
*1321 ANTENNA_7
*1322 ANTENNA_8
*1323 ANTENNA_9
*1324 ANTENNA_c100_C_N
*1325 ANTENNA_c100_D_N
*1326 ANTENNA_c100_X
*1327 ANTENNA_c101_B
*1328 ANTENNA_c101_X
*1329 ANTENNA_c102_A
*1330 ANTENNA_c102_B
*1331 ANTENNA_c102_C
*1332 ANTENNA_c102_X
*1333 ANTENNA_c103_A
*1334 ANTENNA_c103_B
*1335 ANTENNA_c104_A1
*1336 ANTENNA_c104_A1_1
*1337 ANTENNA_c104_A3
*1338 ANTENNA_c104_S0
*1339 ANTENNA_c104_S1
*1340 ANTENNA_c105_A
*1341 ANTENNA_c105_B
*1342 ANTENNA_c105_C
*1343 ANTENNA_c106_A
*1344 ANTENNA_c106_B
*1345 ANTENNA_c107_B
*1346 ANTENNA_c108_B
*1347 ANTENNA_c108_X
*1348 ANTENNA_c109_A0
*1349 ANTENNA_c109_A3
*1350 ANTENNA_c109_S0
*1351 ANTENNA_c109_S1
*1352 ANTENNA_c109_X
*1353 ANTENNA_c110_A
*1354 ANTENNA_c110_B
*1355 ANTENNA_c111_B
*1356 ANTENNA_c112_A
*1357 ANTENNA_c112_B
*1358 ANTENNA_c113_A
*1359 ANTENNA_c113_B
*1360 ANTENNA_c114_A
*1361 ANTENNA_c114_B
*1362 ANTENNA_c115_B
*1363 ANTENNA_c116_A
*1364 ANTENNA_c117_A
*1365 ANTENNA_c118_X
*1366 ANTENNA_c119_A
*1367 ANTENNA_c120_B
*1368 ANTENNA_c120_X
*1369 ANTENNA_c122_A
*1370 ANTENNA_c125_B
*1371 ANTENNA_c127_B
*1372 ANTENNA_c127_X
*1373 ANTENNA_c128_B
*1374 ANTENNA_c128_X
*1375 ANTENNA_c129_B
*1376 ANTENNA_c131_B
*1377 ANTENNA_c131_C
*1378 ANTENNA_c132_A
*1379 ANTENNA_c132_B
*1380 ANTENNA_c132_X
*1381 ANTENNA_c133_A
*1382 ANTENNA_c133_B
*1383 ANTENNA_c133_X
*1384 ANTENNA_c134_A
*1385 ANTENNA_c134_B
*1386 ANTENNA_c135_A
*1387 ANTENNA_c135_A_1
*1388 ANTENNA_c135_B
*1389 ANTENNA_c135_B_1
*1390 ANTENNA_c135_X
*1391 ANTENNA_c136_B
*1392 ANTENNA_c137_A
*1393 ANTENNA_c137_B
*1394 ANTENNA_c137_X
*1395 ANTENNA_c137_X_1
*1396 ANTENNA_c138_B
*1397 ANTENNA_c138_C
*1398 ANTENNA_c138_C_1
*1399 ANTENNA_c139_A
*1400 ANTENNA_c139_B
*1401 ANTENNA_c139_X
*1402 ANTENNA_c140_A
*1403 ANTENNA_c140_X
*1404 ANTENNA_c141_A
*1405 ANTENNA_c141_X
*1406 ANTENNA_c141_X_1
*1407 ANTENNA_c142_A
*1408 ANTENNA_c142_B
*1409 ANTENNA_c142_C_N
*1410 ANTENNA_c142_D_N
*1411 ANTENNA_c142_X
*1412 ANTENNA_c143_A
*1413 ANTENNA_c143_B
*1414 ANTENNA_c143_B_1
*1415 ANTENNA_c143_X
*1416 ANTENNA_c144_A
*1417 ANTENNA_c144_B
*1418 ANTENNA_c144_C
*1419 ANTENNA_c144_X
*1420 ANTENNA_c145_A
*1421 ANTENNA_c145_X
*1422 ANTENNA_c146_A0
*1423 ANTENNA_c146_A0_1
*1424 ANTENNA_c146_A1
*1425 ANTENNA_c146_A1_1
*1426 ANTENNA_c146_A2
*1427 ANTENNA_c146_A3
*1428 ANTENNA_c146_S0
*1429 ANTENNA_c146_X
*1430 ANTENNA_c147_A
*1431 ANTENNA_c147_A_1
*1432 ANTENNA_c147_B
*1433 ANTENNA_c148_A
*1434 ANTENNA_c148_B
*1435 ANTENNA_c149_B
*1436 ANTENNA_c149_C
*1437 ANTENNA_c149_X
*1438 ANTENNA_c150_A
*1439 ANTENNA_c150_C_N
*1440 ANTENNA_c150_C_N_1
*1441 ANTENNA_c150_D_N
*1442 ANTENNA_c150_X
*1443 ANTENNA_c150_X_1
*1444 ANTENNA_c151_A
*1445 ANTENNA_c151_B
*1446 ANTENNA_c151_C
*1447 ANTENNA_c151_X
*1448 ANTENNA_c151_X_1
*1449 ANTENNA_c152_B
*1450 ANTENNA_c152_C
*1451 ANTENNA_c152_X
*1452 ANTENNA_c153_A0
*1453 ANTENNA_c153_A1
*1454 ANTENNA_c153_A2
*1455 ANTENNA_c153_A3
*1456 ANTENNA_c153_S0
*1457 ANTENNA_c153_X
*1458 ANTENNA_c153_X_1
*1459 ANTENNA_c154_A
*1460 ANTENNA_c154_B
*1461 ANTENNA_c155_A
*1462 ANTENNA_c155_B
*1463 ANTENNA_c156_A
*1464 ANTENNA_c156_B
*1465 ANTENNA_c156_B_1
*1466 ANTENNA_c157_A
*1467 ANTENNA_c157_B
*1468 ANTENNA_c157_C_N
*1469 ANTENNA_c157_D_N
*1470 ANTENNA_c157_X
*1471 ANTENNA_c158_A
*1472 ANTENNA_c159_A
*1473 ANTENNA_c159_B
*1474 ANTENNA_c160_A
*1475 ANTENNA_c160_B
*1476 ANTENNA_c160_X
*1477 ANTENNA_c161_A
*1478 ANTENNA_c161_B
*1479 ANTENNA_c162_X
*1480 ANTENNA_c162_X_1
*1481 ANTENNA_c163_B
*1482 ANTENNA_c164_A
*1483 ANTENNA_c164_B
*1484 ANTENNA_c165_S0
*1485 ANTENNA_c165_S1
*1486 ANTENNA_c166_A
*1487 ANTENNA_c166_B
*1488 ANTENNA_c166_C
*1489 ANTENNA_c166_X
*1490 ANTENNA_c166_X_1
*1491 ANTENNA_c167_C_N
*1492 ANTENNA_c168_A
*1493 ANTENNA_c168_X
*1494 ANTENNA_c168_X_1
*1495 ANTENNA_c169_B
*1496 ANTENNA_c169_X
*1497 ANTENNA_c170_C
*1498 ANTENNA_c170_X
*1499 ANTENNA_c170_X_1
*1500 ANTENNA_c171_C
*1501 ANTENNA_c171_X
*1502 ANTENNA_c172_A
*1503 ANTENNA_c173_B
*1504 ANTENNA_c173_C_N
*1505 ANTENNA_c173_D_N
*1506 ANTENNA_c173_X
*1507 ANTENNA_c174_B
*1508 ANTENNA_c174_X
*1509 ANTENNA_c175_A
*1510 ANTENNA_c175_C
*1511 ANTENNA_c176_A
*1512 ANTENNA_c176_B
*1513 ANTENNA_c177_A
*1514 ANTENNA_c177_B
*1515 ANTENNA_c178_A
*1516 ANTENNA_c178_B
*1517 ANTENNA_c178_C
*1518 ANTENNA_c178_X
*1519 ANTENNA_c179_A
*1520 ANTENNA_c179_A_1
*1521 ANTENNA_c179_B
*1522 ANTENNA_c180_A
*1523 ANTENNA_c181_X
*1524 ANTENNA_c182_B
*1525 ANTENNA_c182_X
*1526 ANTENNA_c184_B
*1527 ANTENNA_c185_A
*1528 ANTENNA_c185_B
*1529 ANTENNA_c185_C
*1530 ANTENNA_c185_X
*1531 ANTENNA_c185_X_1
*1532 ANTENNA_c186_C
*1533 ANTENNA_c187_B
*1534 ANTENNA_c187_C
*1535 ANTENNA_c187_C_1
*1536 ANTENNA_c187_X
*1537 ANTENNA_c187_X_1
*1538 ANTENNA_c188_A
*1539 ANTENNA_c188_B
*1540 ANTENNA_c188_B_1
*1541 ANTENNA_c188_X
*1542 ANTENNA_c189_B
*1543 ANTENNA_c189_C_N
*1544 ANTENNA_c189_D_N
*1545 ANTENNA_c190_B
*1546 ANTENNA_c190_C
*1547 ANTENNA_c190_X
*1548 ANTENNA_c191_B
*1549 ANTENNA_c192_A
*1550 ANTENNA_c192_A_1
*1551 ANTENNA_c192_B
*1552 ANTENNA_c192_C
*1553 ANTENNA_c192_X
*1554 ANTENNA_c193_A2
*1555 ANTENNA_c193_A3
*1556 ANTENNA_c193_A3_1
*1557 ANTENNA_c193_S1
*1558 ANTENNA_c194_B
*1559 ANTENNA_c194_C
*1560 ANTENNA_c194_X
*1561 ANTENNA_c195_A
*1562 ANTENNA_c196_B
*1563 ANTENNA_c196_D_N
*1564 ANTENNA_c197_A
*1565 ANTENNA_c197_C_N
*1566 ANTENNA_c198_B
*1567 ANTENNA_c198_X
*1568 ANTENNA_c199_B
*1569 ANTENNA_c200_B
*1570 ANTENNA_c201_A
*1571 ANTENNA_c201_B
*1572 ANTENNA_c201_B_1
*1573 ANTENNA_c201_C
*1574 ANTENNA_c201_X
*1575 ANTENNA_c202_B
*1576 ANTENNA_c203_B
*1577 ANTENNA_c204_X
*1578 ANTENNA_c206_B
*1579 ANTENNA_c207_B
*1580 ANTENNA_c208_B
*1581 ANTENNA_c208_C
*1582 ANTENNA_c208_C_1
*1583 ANTENNA_c209_A
*1584 ANTENNA_c209_X
*1585 ANTENNA_c211_A
*1586 ANTENNA_c213_A3
*1587 ANTENNA_c213_S0
*1588 ANTENNA_c214_A0
*1589 ANTENNA_c214_A2
*1590 ANTENNA_c214_A3
*1591 ANTENNA_c214_S0
*1592 ANTENNA_c214_S1
*1593 ANTENNA_c214_X
*1594 ANTENNA_c215_A
*1595 ANTENNA_c215_B
*1596 ANTENNA_c217_B
*1597 ANTENNA_c219_X
*1598 ANTENNA_c220_C_N
*1599 ANTENNA_c221_C_N
*1600 ANTENNA_c222_B
*1601 ANTENNA_c223_A
*1602 ANTENNA_c223_B
*1603 ANTENNA_c223_B_1
*1604 ANTENNA_c223_C
*1605 ANTENNA_c223_C_1
*1606 ANTENNA_c224_B
*1607 ANTENNA_c224_B_1
*1608 ANTENNA_c225_A
*1609 ANTENNA_c225_B
*1610 ANTENNA_c226_X
*1611 ANTENNA_c227_B
*1612 ANTENNA_c229_C
*1613 ANTENNA_c229_X
*1614 ANTENNA_c230_X
*1615 ANTENNA_c231_B
*1616 ANTENNA_c232_A
*1617 ANTENNA_c232_C
*1618 ANTENNA_c232_X
*1619 ANTENNA_c233_A
*1620 ANTENNA_c233_B
*1621 ANTENNA_c234_B
*1622 ANTENNA_c234_X
*1623 ANTENNA_c235_A
*1624 ANTENNA_c235_B
*1625 ANTENNA_c235_B_1
*1626 ANTENNA_c235_X
*1627 ANTENNA_c236_B
*1628 ANTENNA_c236_X
*1629 ANTENNA_c239_A0
*1630 ANTENNA_c239_S0
*1631 ANTENNA_c240_C
*1632 ANTENNA_c240_C_1
*1633 ANTENNA_c241_D_N
*1634 ANTENNA_c264_A
*1635 ANTENNA_c264_B
*1636 ANTENNA_c265_A
*1637 ANTENNA_c265_X
*1638 ANTENNA_c266_A
*1639 ANTENNA_c266_A_1
*1640 ANTENNA_c266_B
*1641 ANTENNA_c267_A
*1642 ANTENNA_c267_B
*1643 ANTENNA_c267_B_1
*1644 ANTENNA_c267_X
*1645 ANTENNA_c268_A
*1646 ANTENNA_c268_A_1
*1647 ANTENNA_c268_X
*1648 ANTENNA_c269_B
*1649 ANTENNA_c270_B
*1650 ANTENNA_c272_A
*1651 ANTENNA_c272_B
*1652 ANTENNA_c272_X
*1653 ANTENNA_c273_X
*1654 ANTENNA_c274_X
*1655 ANTENNA_c275_A
*1656 ANTENNA_c275_A_1
*1657 ANTENNA_c276_A
*1658 ANTENNA_c276_B
*1659 ANTENNA_c276_X
*1660 ANTENNA_c276_X_1
*1661 ANTENNA_c277_A
*1662 ANTENNA_c278_A
*1663 ANTENNA_c278_B
*1664 ANTENNA_c278_X
*1665 ANTENNA_c279_B
*1666 ANTENNA_c279_B_1
*1667 ANTENNA_c280_B
*1668 ANTENNA_c280_X
*1669 ANTENNA_c281_A
*1670 ANTENNA_c281_X
*1671 ANTENNA_c282_B
*1672 ANTENNA_c283_X
*1673 ANTENNA_c284_B
*1674 ANTENNA_c284_B_1
*1675 ANTENNA_c284_C
*1676 ANTENNA_c284_C_1
*1677 ANTENNA_c284_X
*1678 ANTENNA_c284_X_1
*1679 ANTENNA_c285_A1
*1680 ANTENNA_c285_A2
*1681 ANTENNA_c285_A2_1
*1682 ANTENNA_c285_B1
*1683 ANTENNA_c285_C1
*1684 ANTENNA_c285_C1_1
*1685 ANTENNA_c285_X
*1686 ANTENNA_c286_A
*1687 ANTENNA_c287_A
*1688 ANTENNA_c287_X
*1689 ANTENNA_c288_B
*1690 ANTENNA_c288_X
*1691 ANTENNA_c289_X
*1692 ANTENNA_c289_X_1
*1693 ANTENNA_c290_A
*1694 ANTENNA_c290_X
*1695 ANTENNA_c291_X
*1696 ANTENNA_c292_A
*1697 ANTENNA_c292_B
*1698 ANTENNA_c293_B
*1699 ANTENNA_c293_C
*1700 ANTENNA_c294_A
*1701 ANTENNA_c294_B
*1702 ANTENNA_c295_A
*1703 ANTENNA_c295_X
*1704 ANTENNA_c296_A
*1705 ANTENNA_c296_B
*1706 ANTENNA_c296_C
*1707 ANTENNA_c296_C_1
*1708 ANTENNA_c297_C
*1709 ANTENNA_c298_B
*1710 ANTENNA_c298_X
*1711 ANTENNA_c299_B
*1712 ANTENNA_c299_C
*1713 ANTENNA_c300_B
*1714 ANTENNA_c300_C_N
*1715 ANTENNA_c300_C_N_1
*1716 ANTENNA_c300_D_N
*1717 ANTENNA_c300_D_N_1
*1718 ANTENNA_c301_A
*1719 ANTENNA_c301_X
*1720 ANTENNA_c302_A
*1721 ANTENNA_c302_B
*1722 ANTENNA_c302_C
*1723 ANTENNA_c303_B
*1724 ANTENNA_c303_B_1
*1725 ANTENNA_c303_X
*1726 ANTENNA_c304_B
*1727 ANTENNA_c304_C
*1728 ANTENNA_c305_X
*1729 ANTENNA_c306_A1
*1730 ANTENNA_c306_A2
*1731 ANTENNA_c306_A3
*1732 ANTENNA_c306_S0
*1733 ANTENNA_c306_S1
*1734 ANTENNA_c306_S1_1
*1735 ANTENNA_c307_A0
*1736 ANTENNA_c307_A2
*1737 ANTENNA_c307_A3
*1738 ANTENNA_c307_A3_1
*1739 ANTENNA_c307_S0
*1740 ANTENNA_c307_S1
*1741 ANTENNA_c308_B
*1742 ANTENNA_c309_B
*1743 ANTENNA_c309_B_1
*1744 ANTENNA_c309_C
*1745 ANTENNA_c309_C_1
*1746 ANTENNA_c310_A
*1747 ANTENNA_c310_A_1
*1748 ANTENNA_c310_B
*1749 ANTENNA_c312_A
*1750 ANTENNA_c312_B
*1751 ANTENNA_c313_B
*1752 ANTENNA_c314_A
*1753 ANTENNA_c315_B
*1754 ANTENNA_c316_X
*1755 ANTENNA_c316_X_1
*1756 ANTENNA_c318_B
*1757 ANTENNA_c319_A
*1758 ANTENNA_c319_C
*1759 ANTENNA_c320_B
*1760 ANTENNA_c320_C
*1761 ANTENNA_c321_B
*1762 ANTENNA_c321_C
*1763 ANTENNA_c322_A
*1764 ANTENNA_c324_B
*1765 ANTENNA_c324_C
*1766 ANTENNA_c324_X
*1767 ANTENNA_c325_A
*1768 ANTENNA_c325_B
*1769 ANTENNA_c326_A
*1770 ANTENNA_c327_B
*1771 ANTENNA_c327_B_1
*1772 ANTENNA_c328_A2
*1773 ANTENNA_c328_A3
*1774 ANTENNA_c328_S1
*1775 ANTENNA_c330_B
*1776 ANTENNA_c332_B1
*1777 ANTENNA_c332_D1
*1778 ANTENNA_c332_X
*1779 ANTENNA_c333_A
*1780 ANTENNA_c333_C
*1781 ANTENNA_c333_X
*1782 ANTENNA_c334_A1
*1783 ANTENNA_c334_B1
*1784 ANTENNA_c334_C1
*1785 ANTENNA_c334_D1
*1786 ANTENNA_c334_X
*1787 ANTENNA_c335_D1
*1788 ANTENNA_c335_X
*1789 ANTENNA_c337_B
*1790 ANTENNA_c338_A2
*1791 ANTENNA_c338_B1
*1792 ANTENNA_c338_C1
*1793 ANTENNA_c338_D1
*1794 ANTENNA_c338_D1_1
*1795 ANTENNA_c339_B
*1796 ANTENNA_c339_C
*1797 ANTENNA_c340_C
*1798 ANTENNA_c340_C_1
*1799 ANTENNA_c341_A
*1800 ANTENNA_c341_B
*1801 ANTENNA_c342_B
*1802 ANTENNA_c342_C
*1803 ANTENNA_c342_X
*1804 ANTENNA_c343_A
*1805 ANTENNA_c343_C
*1806 ANTENNA_c344_C
*1807 ANTENNA_c344_X
*1808 ANTENNA_c345_B1
*1809 ANTENNA_c345_C1
*1810 ANTENNA_c345_D1
*1811 ANTENNA_c345_X
*1812 ANTENNA_c347_C
*1813 ANTENNA_c348_C
*1814 ANTENNA_c348_X
*1815 ANTENNA_c349_A
*1816 ANTENNA_c350_A
*1817 ANTENNA_c351_A1
*1818 ANTENNA_c351_A1_1
*1819 ANTENNA_c351_A3
*1820 ANTENNA_c351_S0
*1821 ANTENNA_c351_S1
*1822 ANTENNA_c352_A2
*1823 ANTENNA_c352_B1
*1824 ANTENNA_c352_C1
*1825 ANTENNA_c352_D1
*1826 ANTENNA_c353_A
*1827 ANTENNA_c353_B
*1828 ANTENNA_c353_C
*1829 ANTENNA_c354_B
*1830 ANTENNA_c354_C
*1831 ANTENNA_c355_C
*1832 ANTENNA_c356_A
*1833 ANTENNA_c356_B
*1834 ANTENNA_c357_B
*1835 ANTENNA_c357_B_1
*1836 ANTENNA_c357_C
*1837 ANTENNA_c358_A1
*1838 ANTENNA_c358_A2
*1839 ANTENNA_c358_A3
*1840 ANTENNA_c358_A3_1
*1841 ANTENNA_c358_S0
*1842 ANTENNA_c358_S0_1
*1843 ANTENNA_c358_S1
*1844 ANTENNA_c358_S1_1
*1845 ANTENNA_c359_A
*1846 ANTENNA_c360_B
*1847 ANTENNA_c360_C
*1848 ANTENNA_c361_A
*1849 ANTENNA_c361_B
*1850 ANTENNA_c362_A1
*1851 ANTENNA_c362_A3
*1852 ANTENNA_c362_S0
*1853 ANTENNA_c362_S1
*1854 ANTENNA_c362_X
*1855 ANTENNA_c362_X_1
*1856 ANTENNA_c363_A1
*1857 ANTENNA_c363_A2
*1858 ANTENNA_c363_A3
*1859 ANTENNA_c363_S0
*1860 ANTENNA_c364_B1
*1861 ANTENNA_c365_C
*1862 ANTENNA_c365_X
*1863 ANTENNA_c366_A
*1864 ANTENNA_c367_B
*1865 ANTENNA_c367_B_1
*1866 ANTENNA_c367_C
*1867 ANTENNA_c369_X
*1868 ANTENNA_c373_A1
*1869 ANTENNA_c373_A1_1
*1870 ANTENNA_c396_B
*1871 ANTENNA_c397_A
*1872 ANTENNA_c397_A_1
*1873 ANTENNA_c397_B
*1874 ANTENNA_c398_C
*1875 ANTENNA_c398_X
*1876 ANTENNA_c399_A
*1877 ANTENNA_c399_B
*1878 ANTENNA_c399_X
*1879 ANTENNA_c400_B
*1880 ANTENNA_c401_A
*1881 ANTENNA_c401_B
*1882 ANTENNA_c401_X
*1883 ANTENNA_c401_X_1
*1884 ANTENNA_c403_B
*1885 ANTENNA_c403_X
*1886 ANTENNA_c404_B
*1887 ANTENNA_c404_X
*1888 ANTENNA_c405_A
*1889 ANTENNA_c405_B
*1890 ANTENNA_c405_X
*1891 ANTENNA_c406_A1
*1892 ANTENNA_c406_D1
*1893 ANTENNA_c406_X
*1894 ANTENNA_c407_X
*1895 ANTENNA_c408_A
*1896 ANTENNA_c409_A
*1897 ANTENNA_c409_B
*1898 ANTENNA_c410_A
*1899 ANTENNA_c410_X
*1900 ANTENNA_c411_B
*1901 ANTENNA_c412_B
*1902 ANTENNA_c412_X
*1903 ANTENNA_c413_B
*1904 ANTENNA_c414_X
*1905 ANTENNA_c415_A
*1906 ANTENNA_c416_B
*1907 ANTENNA_c417_A1
*1908 ANTENNA_c417_B1
*1909 ANTENNA_c417_C1
*1910 ANTENNA_c418_A
*1911 ANTENNA_c418_B
*1912 ANTENNA_c418_B_1
*1913 ANTENNA_c418_X
*1914 ANTENNA_c419_A
*1915 ANTENNA_c419_B
*1916 ANTENNA_c420_B
*1917 ANTENNA_c420_B_1
*1918 ANTENNA_c421_A
*1919 ANTENNA_c421_C_N
*1920 ANTENNA_c421_D_N
*1921 ANTENNA_c421_D_N_1
*1922 ANTENNA_c422_A2
*1923 ANTENNA_c422_B1
*1924 ANTENNA_c422_B1_1
*1925 ANTENNA_c422_D1
*1926 ANTENNA_c423_X
*1927 ANTENNA_c423_X_1
*1928 ANTENNA_c424_A
*1929 ANTENNA_c425_A
*1930 ANTENNA_c425_B
*1931 ANTENNA_c425_C
*1932 ANTENNA_c425_C_1
*1933 ANTENNA_c425_X
*1934 ANTENNA_c426_A
*1935 ANTENNA_c426_B
*1936 ANTENNA_c426_C_N
*1937 ANTENNA_c426_D_N
*1938 ANTENNA_c426_D_N_1
*1939 ANTENNA_c426_X
*1940 ANTENNA_c427_A
*1941 ANTENNA_c427_C
*1942 ANTENNA_c427_X
*1943 ANTENNA_c428_A
*1944 ANTENNA_c428_X
*1945 ANTENNA_c429_X
*1946 ANTENNA_c429_X_1
*1947 ANTENNA_c430_C
*1948 ANTENNA_c430_X
*1949 ANTENNA_c431_A
*1950 ANTENNA_c431_B
*1951 ANTENNA_c431_C
*1952 ANTENNA_c432_C
*1953 ANTENNA_c433_A0
*1954 ANTENNA_c433_A1
*1955 ANTENNA_c433_A2
*1956 ANTENNA_c433_A3
*1957 ANTENNA_c433_S0