*SPEF "ieee 1481-1999"
*DESIGN "netlist_0"
*DATE "15:50:22 Friday August 16, 2024"
*VENDOR "The OpenROAD Project"
*PROGRAM "OpenROAD"
*VERSION "d423155d69de7f683a23f6916ead418a615ad4ad"
*DESIGN_FLOW "NAME_SCOPE LOCAL" "PIN_CAP NONE"
*DIVIDER /
*DELIMITER :
*BUS_DELIMITER []
*T_UNIT 1 NS
*C_UNIT 1 PF
*R_UNIT 1 OHM
*L_UNIT 1 HENRY

*NAME_MAP
*3 clk
*4 in0
*5 in1
*6 in10
*7 in11
*8 in12
*9 in13
*10 in14
*11 in15
*12 in16
*13 in17
*14 in18
*15 in19
*16 in2
*17 in20
*18 in21
*19 in22
*20 in23
*21 in24
*22 in25
*23 in26
*24 in27
*25 in28
*26 in29
*27 in3
*28 in30
*29 in31
*30 in32
*31 in33
*32 in34
*33 in35
*34 in36
*35 in37
*36 in38
*37 in39
*38 in4
*39 in40
*40 in41
*41 in42
*42 in43
*43 in44
*44 in45
*45 in46
*46 in47
*47 in48
*48 in49
*49 in5
*50 in50
*51 in51
*52 in52
*53 in53
*54 in54
*55 in55
*56 in56
*57 in57
*58 in58
*59 in59
*60 in6
*61 in60
*62 in61
*63 in7
*64 in8
*65 in9
*66 out0
*67 out1
*68 out10
*69 out11
*70 out12
*71 out13
*72 out14
*73 out15
*74 out16
*75 out17
*76 out18
*77 out19
*78 out2
*79 out20
*80 out21
*81 out22
*82 out23
*83 out24
*84 out25
*85 out26
*86 out27
*87 out28
*88 out29
*89 out3
*90 out30
*91 out31
*92 out32
*93 out33
*94 out34
*95 out35
*96 out36
*97 out37
*98 out38
*99 out39
*100 out4
*101 out40
*102 out41
*103 out42
*104 out43
*105 out44
*106 out45
*107 out46
*108 out47
*109 out48
*110 out49
*111 out5
*112 out50
*113 out51
*114 out52
*115 out53
*116 out54
*117 out55
*118 out56
*119 out57
*120 out58
*121 out59
*122 out6
*123 out60
*124 out61
*125 out7
*126 out8
*127 out9
*128 rst
*129 clknet_0_clk
*130 clknet_0_net177
*131 clknet_0_net178
*132 clknet_0_net182
*133 clknet_0_net188
*134 clknet_0_net189
*135 clknet_0_net230
*136 clknet_0_net232
*137 clknet_0_net233
*138 clknet_0_net254
*139 clknet_0_net264
*140 clknet_0_net269
*141 clknet_0_net275
*142 clknet_0_net280
*143 clknet_0_net299
*144 clknet_0_net308
*145 clknet_0_net316
*146 clknet_0_net343
*147 clknet_0_net349
*148 clknet_0_net354
*149 clknet_0_net361
*150 clknet_0_net365
*151 clknet_0_net366
*152 clknet_0_net372
*153 clknet_0_net378
*154 clknet_0_net380
*155 clknet_0_net389
*156 clknet_0_net392
*157 clknet_0_net396
*158 clknet_0_net399
*159 clknet_0_net400
*160 clknet_0_net477
*161 clknet_0_net479
*162 clknet_0_net485
*163 clknet_0_net496
*164 clknet_0_net498
*165 clknet_0_net507
*166 clknet_0_net534
*167 clknet_0_net537
*168 clknet_0_net542
*169 clknet_0_net567
*170 clknet_0_net568
*171 clknet_0_net569
*172 clknet_0_net570
*173 clknet_0_net575
*174 clknet_0_net581
*175 clknet_0_net604
*176 clknet_0_net618
*177 clknet_0_net706
*178 clknet_0_net742
*179 clknet_0_net746
*180 clknet_0_net747
*181 clknet_0_net767
*182 clknet_0_net768
*183 clknet_0_net786
*184 clknet_0_net787
*185 clknet_0_net803
*186 clknet_0_net804
*187 clknet_0_net805
*188 clknet_0_net821
*189 clknet_0_net822
*190 clknet_0_net823
*191 clknet_0_net841
*192 clknet_0_net842
*193 clknet_0_net843
*194 clknet_0_net913
*195 clknet_0_net916
*196 clknet_0_net925
*197 clknet_0_net930
*198 clknet_0_net948
*199 clknet_0_net951
*200 clknet_0_net952
*201 clknet_0_net953
*202 clknet_1_0__leaf_net177
*203 clknet_1_0__leaf_net178
*204 clknet_1_0__leaf_net182
*205 clknet_1_0__leaf_net188
*206 clknet_1_0__leaf_net189
*207 clknet_1_0__leaf_net230
*208 clknet_1_0__leaf_net232
*209 clknet_1_0__leaf_net233
*210 clknet_1_0__leaf_net254
*211 clknet_1_0__leaf_net264
*212 clknet_1_0__leaf_net269
*213 clknet_1_0__leaf_net275
*214 clknet_1_0__leaf_net280
*215 clknet_1_0__leaf_net299
*216 clknet_1_0__leaf_net308
*217 clknet_1_0__leaf_net316
*218 clknet_1_0__leaf_net343
*219 clknet_1_0__leaf_net349
*220 clknet_1_0__leaf_net354
*221 clknet_1_0__leaf_net361
*222 clknet_1_0__leaf_net365
*223 clknet_1_0__leaf_net366
*224 clknet_1_0__leaf_net372
*225 clknet_1_0__leaf_net378
*226 clknet_1_0__leaf_net380
*227 clknet_1_0__leaf_net389
*228 clknet_1_0__leaf_net392
*229 clknet_1_0__leaf_net396
*230 clknet_1_0__leaf_net399
*231 clknet_1_0__leaf_net400
*232 clknet_1_0__leaf_net477
*233 clknet_1_0__leaf_net479
*234 clknet_1_0__leaf_net485
*235 clknet_1_0__leaf_net496
*236 clknet_1_0__leaf_net498
*237 clknet_1_0__leaf_net507
*238 clknet_1_0__leaf_net534
*239 clknet_1_0__leaf_net537
*240 clknet_1_0__leaf_net542
*241 clknet_1_0__leaf_net567
*242 clknet_1_0__leaf_net568
*243 clknet_1_0__leaf_net569
*244 clknet_1_0__leaf_net570
*245 clknet_1_0__leaf_net575
*246 clknet_1_0__leaf_net581
*247 clknet_1_0__leaf_net604
*248 clknet_1_0__leaf_net618
*249 clknet_1_0__leaf_net706
*250 clknet_1_0__leaf_net742
*251 clknet_1_0__leaf_net746
*252 clknet_1_0__leaf_net747
*253 clknet_1_0__leaf_net767
*254 clknet_1_0__leaf_net768
*255 clknet_1_0__leaf_net786
*256 clknet_1_0__leaf_net787
*257 clknet_1_0__leaf_net803
*258 clknet_1_0__leaf_net804
*259 clknet_1_0__leaf_net805
*260 clknet_1_0__leaf_net821
*261 clknet_1_0__leaf_net822
*262 clknet_1_0__leaf_net823
*263 clknet_1_0__leaf_net841
*264 clknet_1_0__leaf_net842
*265 clknet_1_0__leaf_net843
*266 clknet_1_0__leaf_net913
*267 clknet_1_0__leaf_net916
*268 clknet_1_0__leaf_net925
*269 clknet_1_0__leaf_net930
*270 clknet_1_0__leaf_net948
*271 clknet_1_0__leaf_net951
*272 clknet_1_0__leaf_net952
*273 clknet_1_0__leaf_net953
*274 clknet_1_1__leaf_net177
*275 clknet_1_1__leaf_net178
*276 clknet_1_1__leaf_net182
*277 clknet_1_1__leaf_net188
*278 clknet_1_1__leaf_net189
*279 clknet_1_1__leaf_net230
*280 clknet_1_1__leaf_net232
*281 clknet_1_1__leaf_net233
*282 clknet_1_1__leaf_net254
*283 clknet_1_1__leaf_net264
*284 clknet_1_1__leaf_net269
*285 clknet_1_1__leaf_net275
*286 clknet_1_1__leaf_net280
*287 clknet_1_1__leaf_net299
*288 clknet_1_1__leaf_net308
*289 clknet_1_1__leaf_net316
*290 clknet_1_1__leaf_net343
*291 clknet_1_1__leaf_net349
*292 clknet_1_1__leaf_net354
*293 clknet_1_1__leaf_net361
*294 clknet_1_1__leaf_net365
*295 clknet_1_1__leaf_net366
*296 clknet_1_1__leaf_net372
*297 clknet_1_1__leaf_net378
*298 clknet_1_1__leaf_net380
*299 clknet_1_1__leaf_net389
*300 clknet_1_1__leaf_net392
*301 clknet_1_1__leaf_net396
*302 clknet_1_1__leaf_net399
*303 clknet_1_1__leaf_net400
*304 clknet_1_1__leaf_net477
*305 clknet_1_1__leaf_net479
*306 clknet_1_1__leaf_net485
*307 clknet_1_1__leaf_net496
*308 clknet_1_1__leaf_net498
*309 clknet_1_1__leaf_net507
*310 clknet_1_1__leaf_net534
*311 clknet_1_1__leaf_net537
*312 clknet_1_1__leaf_net542
*313 clknet_1_1__leaf_net567
*314 clknet_1_1__leaf_net568
*315 clknet_1_1__leaf_net569
*316 clknet_1_1__leaf_net570
*317 clknet_1_1__leaf_net575
*318 clknet_1_1__leaf_net581
*319 clknet_1_1__leaf_net604
*320 clknet_1_1__leaf_net618
*321 clknet_1_1__leaf_net706
*322 clknet_1_1__leaf_net742
*323 clknet_1_1__leaf_net746
*324 clknet_1_1__leaf_net747
*325 clknet_1_1__leaf_net767
*326 clknet_1_1__leaf_net768
*327 clknet_1_1__leaf_net786
*328 clknet_1_1__leaf_net787
*329 clknet_1_1__leaf_net803
*330 clknet_1_1__leaf_net804
*331 clknet_1_1__leaf_net805
*332 clknet_1_1__leaf_net821
*333 clknet_1_1__leaf_net822
*334 clknet_1_1__leaf_net823
*335 clknet_1_1__leaf_net841
*336 clknet_1_1__leaf_net842
*337 clknet_1_1__leaf_net843
*338 clknet_1_1__leaf_net913
*339 clknet_1_1__leaf_net916
*340 clknet_1_1__leaf_net925
*341 clknet_1_1__leaf_net930
*342 clknet_1_1__leaf_net948
*343 clknet_1_1__leaf_net951
*344 clknet_1_1__leaf_net952
*345 clknet_1_1__leaf_net953
*346 clknet_4_0_0_clk
*347 clknet_4_10_0_clk
*348 clknet_4_11_0_clk
*349 clknet_4_12_0_clk
*350 clknet_4_13_0_clk
*351 clknet_4_14_0_clk
*352 clknet_4_15_0_clk
*353 clknet_4_1_0_clk
*354 clknet_4_2_0_clk
*355 clknet_4_3_0_clk
*356 clknet_4_4_0_clk
*357 clknet_4_5_0_clk
*358 clknet_4_6_0_clk
*359 clknet_4_7_0_clk
*360 clknet_4_8_0_clk
*361 clknet_4_9_0_clk
*362 net0
*363 net1
*364 net10
*365 net100
*366 net1000
*367 net1001
*368 net1002
*369 net1003
*370 net1004
*371 net1005
*372 net1006
*373 net1007
*374 net1008
*375 net1009
*376 net101
*377 net1010
*378 net1011
*379 net1012
*380 net1013
*381 net1014
*382 net1015
*383 net1016
*384 net1017
*385 net1018
*386 net1019
*387 net102
*388 net1020
*389 net1021
*390 net1022
*391 net1023
*392 net1024
*393 net1025
*394 net1026
*395 net1027
*396 net1028
*397 net1029
*398 net103
*399 net1030
*400 net1031
*401 net1032
*402 net1033
*403 net1034
*404 net1035
*405 net1036
*406 net1037
*407 net1038
*408 net1039
*409 net104
*410 net1040
*411 net1041
*412 net1042
*413 net1043
*414 net1044
*415 net1045
*416 net1046
*417 net1047
*418 net1048
*419 net1049
*420 net105
*421 net1050
*422 net1051
*423 net1052
*424 net1053
*425 net1054
*426 net1055
*427 net1056
*428 net1057
*429 net1058
*430 net1059
*431 net106
*432 net1060
*433 net1061
*434 net1062
*435 net1063
*436 net1064
*437 net1065
*438 net1066
*439 net1067
*440 net1068
*441 net1069
*442 net107
*443 net1070
*444 net1071
*445 net1072
*446 net1073
*447 net1074
*448 net1075
*449 net1076
*450 net1077
*451 net1078
*452 net1079
*453 net108
*454 net1080
*455 net1081
*456 net1082
*457 net1083
*458 net1084
*459 net1085
*460 net1086
*461 net1087
*462 net1088
*463 net1089
*464 net109
*465 net1090
*466 net1091
*467 net1092
*468 net1093
*469 net1094
*470 net1095
*471 net1096
*472 net1097
*473 net1098
*474 net1099
*475 net11
*476 net110
*477 net1100
*478 net1101
*479 net1102
*480 net1103
*481 net1104
*482 net1105
*483 net1106
*484 net1107
*485 net1108
*486 net1109
*487 net111
*488 net1110
*489 net1111
*490 net1112
*491 net1113
*492 net1114
*493 net1115
*494 net1116
*495 net1117
*496 net1118
*497 net1119
*498 net112
*499 net1120
*500 net1121
*501 net1122
*502 net1123
*503 net1124
*504 net1125
*505 net1126
*506 net1127
*507 net1128
*508 net1129
*509 net113
*510 net1130
*511 net1131
*512 net114
*513 net115
*514 net116
*515 net117
*516 net118
*517 net119
*518 net12
*519 net120
*520 net121
*521 net122
*522 net123
*523 net124
*524 net125
*525 net126
*526 net127
*527 net128
*528 net129
*529 net13
*530 net130
*531 net131
*532 net132
*533 net133
*534 net134
*535 net135
*536 net136
*537 net137
*538 net138
*539 net139
*540 net14
*541 net140
*542 net141
*543 net142
*544 net143
*545 net144
*546 net145
*547 net146
*548 net147
*549 net148
*550 net149
*551 net15
*552 net150
*553 net151
*554 net152
*555 net153
*556 net154
*557 net155
*558 net156
*559 net157
*560 net158
*561 net159
*562 net16
*563 net160
*564 net161
*565 net162
*566 net163
*567 net164
*568 net165
*569 net166
*570 net167
*571 net168
*572 net169
*573 net17
*574 net170
*575 net171
*576 net172
*577 net173
*578 net174
*579 net175
*580 net176
*581 net177
*582 net178
*583 net179
*584 net18
*585 net180
*586 net181
*587 net182
*588 net183
*589 net184
*590 net185
*591 net186
*592 net187
*593 net188
*594 net189
*595 net19
*596 net190
*597 net191
*598 net192
*599 net193
*600 net194
*601 net195
*602 net196
*603 net197
*604 net198
*605 net199
*606 net2
*607 net20
*608 net200
*609 net201
*610 net202
*611 net203
*612 net204
*613 net205
*614 net206
*615 net207
*616 net208
*617 net209
*618 net21
*619 net210
*620 net211
*621 net212
*622 net213
*623 net214
*624 net215
*625 net216
*626 net217
*627 net218
*628 net219
*629 net22
*630 net220
*631 net221
*632 net222
*633 net223
*634 net224
*635 net225
*636 net226
*637 net227
*638 net228
*639 net229
*640 net23
*641 net230
*642 net231
*643 net232
*644 net233
*645 net234
*646 net235
*647 net236
*648 net237
*649 net238
*650 net239
*651 net24
*652 net240
*653 net241
*654 net242
*655 net243
*656 net244
*657 net245
*658 net246
*659 net247
*660 net248
*661 net249
*662 net25
*663 net250
*664 net251
*665 net252
*666 net253
*667 net254
*668 net255
*669 net256
*670 net257
*671 net258
*672 net259
*673 net26
*674 net260
*675 net261
*676 net262
*677 net263
*678 net264
*679 net265
*680 net266
*681 net267
*682 net268
*683 net269
*684 net27
*685 net270
*686 net271
*687 net272
*688 net273
*689 net274
*690 net275
*691 net276
*692 net277
*693 net278
*694 net279
*695 net28
*696 net280
*697 net281
*698 net282
*699 net283
*700 net284
*701 net285
*702 net286
*703 net287
*704 net288
*705 net289
*706 net29
*707 net290
*708 net291
*709 net292
*710 net293
*711 net294
*712 net295
*713 net296
*714 net297
*715 net298
*716 net299
*717 net3
*718 net30
*719 net300
*720 net301
*721 net302
*722 net303
*723 net304
*724 net305
*725 net306
*726 net307
*727 net308
*728 net309
*729 net31
*730 net310
*731 net311
*732 net312
*733 net313
*734 net314
*735 net315
*736 net316
*737 net317
*738 net318
*739 net319
*740 net32
*741 net320
*742 net321
*743 net322
*744 net323
*745 net324
*746 net325
*747 net326
*748 net327
*749 net328
*750 net329
*751 net33
*752 net330
*753 net331
*754 net332
*755 net333
*756 net334
*757 net335
*758 net336
*759 net337
*760 net338
*761 net339
*762 net34
*763 net340
*764 net341
*765 net342
*766 net343
*767 net344
*768 net345
*769 net346
*770 net347
*771 net348
*772 net349
*773 net35
*774 net350
*775 net351
*776 net352
*777 net353
*778 net354
*779 net355
*780 net356
*781 net357
*782 net358
*783 net359
*784 net36
*785 net360
*786 net361
*787 net362
*788 net363
*789 net364
*790 net365
*791 net366
*792 net367
*793 net368
*794 net369
*795 net37
*796 net370
*797 net371
*798 net372
*799 net373
*800 net374
*801 net375
*802 net376
*803 net377
*804 net378
*805 net379
*806 net38
*807 net380
*808 net381
*809 net382
*810 net383
*811 net384
*812 net385
*813 net386
*814 net387
*815 net388
*816 net389
*817 net39
*818 net390
*819 net391
*820 net392
*821 net393
*822 net394
*823 net395
*824 net396
*825 net397
*826 net398
*827 net399
*828 net4
*829 net40
*830 net400
*831 net401
*832 net402
*833 net403
*834 net404
*835 net405
*836 net406
*837 net407
*838 net408
*839 net409
*840 net41
*841 net410
*842 net411
*843 net412
*844 net413
*845 net414
*846 net415
*847 net416
*848 net417
*849 net418
*850 net419
*851 net42
*852 net420
*853 net421
*854 net422
*855 net423
*856 net424
*857 net425
*858 net426
*859 net427
*860 net428
*861 net429
*862 net43
*863 net430
*864 net431
*865 net432
*866 net433
*867 net434
*868 net435
*869 net436
*870 net437
*871 net438
*872 net439
*873 net44
*874 net440
*875 net441
*876 net442
*877 net443
*878 net444
*879 net445
*880 net446
*881 net447
*882 net448
*883 net449
*884 net45
*885 net450
*886 net451
*887 net452
*888 net453
*889 net454
*890 net455
*891 net456
*892 net457
*893 net458
*894 net459
*895 net46
*896 net460
*897 net461
*898 net462
*899 net463
*900 net464
*901 net465
*902 net466
*903 net467
*904 net468
*905 net469
*906 net47
*907 net470
*908 net471
*909 net472
*910 net473
*911 net474
*912 net475
*913 net476
*914 net477
*915 net478
*916 net479
*917 net48
*918 net480
*919 net481
*920 net482
*921 net483
*922 net484
*923 net485
*924 net486
*925 net487
*926 net488
*927 net489
*928 net49
*929 net490
*930 net491
*931 net492
*932 net493
*933 net494
*934 net495
*935 net496
*936 net497
*937 net498
*938 net499
*939 net5
*940 net50
*941 net500
*942 net501
*943 net502
*944 net503
*945 net504
*946 net505
*947 net506
*948 net507
*949 net508
*950 net509
*951 net51
*952 net510
*953 net511
*954 net512
*955 net513
*956 net514
*957 net515
*958 net516
*959 net517
*960 net518
*961 net519
*962 net52
*963 net520
*964 net521
*965 net522
*966 net523
*967 net524
*968 net525
*969 net526
*970 net527
*971 net528
*972 net529
*973 net53
*974 net530
*975 net531
*976 net532
*977 net533
*978 net534
*979 net535
*980 net536
*981 net537
*982 net538
*983 net539
*984 net54
*985 net540
*986 net541
*987 net542
*988 net543
*989 net544
*990 net545
*991 net546
*992 net547
*993 net548
*994 net549
*995 net55
*996 net550
*997 net551
*998 net552
*999 net553
*1000 net554
*1001 net555
*1002 net556
*1003 net557
*1004 net558
*1005 net559
*1006 net56
*1007 net560
*1008 net561
*1009 net562
*1010 net563
*1011 net564
*1012 net565
*1013 net566
*1014 net567
*1015 net568
*1016 net569
*1017 net57
*1018 net570
*1019 net571
*1020 net572
*1021 net573
*1022 net574
*1023 net575
*1024 net576
*1025 net577
*1026 net578
*1027 net579
*1028 net58
*1029 net580
*1030 net581
*1031 net582
*1032 net583
*1033 net584
*1034 net585
*1035 net586
*1036 net587
*1037 net588
*1038 net589
*1039 net59
*1040 net590
*1041 net591
*1042 net592
*1043 net593
*1044 net594
*1045 net595
*1046 net596
*1047 net597
*1048 net598
*1049 net599
*1050 net6
*1051 net60
*1052 net600
*1053 net601
*1054 net602
*1055 net603
*1056 net604
*1057 net605
*1058 net606
*1059 net607
*1060 net608
*1061 net609
*1062 net61
*1063 net610
*1064 net611
*1065 net612
*1066 net613
*1067 net614
*1068 net615
*1069 net616
*1070 net617
*1071 net618
*1072 net619
*1073 net62
*1074 net620
*1075 net621
*1076 net622
*1077 net623
*1078 net624
*1079 net625
*1080 net626
*1081 net627
*1082 net628
*1083 net629
*1084 net63
*1085 net630
*1086 net631
*1087 net632
*1088 net633
*1089 net634
*1090 net635
*1091 net636
*1092 net637
*1093 net638
*1094 net639
*1095 net64
*1096 net640
*1097 net641
*1098 net642
*1099 net643
*1100 net644
*1101 net645
*1102 net646
*1103 net647
*1104 net648
*1105 net649
*1106 net65
*1107 net650
*1108 net651
*1109 net652
*1110 net653
*1111 net654
*1112 net655
*1113 net656
*1114 net657
*1115 net658
*1116 net659
*1117 net66
*1118 net660
*1119 net661
*1120 net662
*1121 net663
*1122 net664
*1123 net665
*1124 net666
*1125 net667
*1126 net668
*1127 net669
*1128 net67
*1129 net670
*1130 net671
*1131 net672
*1132 net673
*1133 net674
*1134 net675
*1135 net676
*1136 net677
*1137 net678
*1138 net679
*1139 net68
*1140 net680
*1141 net681
*1142 net682
*1143 net683
*1144 net684
*1145 net685
*1146 net686
*1147 net687
*1148 net688
*1149 net689
*1150 net69
*1151 net690
*1152 net691
*1153 net692
*1154 net693
*1155 net694
*1156 net695
*1157 net696
*1158 net697
*1159 net698
*1160 net699
*1161 net7
*1162 net70
*1163 net700
*1164 net701
*1165 net702
*1166 net703
*1167 net704
*1168 net705
*1169 net706
*1170 net707
*1171 net708
*1172 net709
*1173 net71
*1174 net710
*1175 net711
*1176 net712
*1177 net713
*1178 net714
*1179 net715
*1180 net716
*1181 net717
*1182 net718
*1183 net719
*1184 net72
*1185 net720
*1186 net721
*1187 net722
*1188 net723
*1189 net724
*1190 net725
*1191 net726
*1192 net727
*1193 net728
*1194 net729
*1195 net73
*1196 net730
*1197 net731
*1198 net732
*1199 net733
*1200 net734
*1201 net735
*1202 net736
*1203 net737
*1204 net738
*1205 net739
*1206 net74
*1207 net740
*1208 net741
*1209 net742
*1210 net743
*1211 net744
*1212 net745
*1213 net746
*1214 net747
*1215 net748
*1216 net749
*1217 net75
*1218 net750
*1219 net751
*1220 net752
*1221 net753
*1222 net754
*1223 net755
*1224 net756
*1225 net757
*1226 net758
*1227 net759
*1228 net76
*1229 net760
*1230 net761
*1231 net762
*1232 net763
*1233 net764
*1234 net765
*1235 net766
*1236 net767
*1237 net768
*1238 net769
*1239 net77
*1240 net770
*1241 net771
*1242 net772
*1243 net773
*1244 net774
*1245 net775
*1246 net776
*1247 net777
*1248 net778
*1249 net779
*1250 net78
*1251 net780
*1252 net781
*1253 net782
*1254 net783
*1255 net784
*1256 net785
*1257 net786
*1258 net787
*1259 net788
*1260 net789
*1261 net79
*1262 net790
*1263 net791
*1264 net792
*1265 net793
*1266 net794
*1267 net795
*1268 net796
*1269 net797
*1270 net798
*1271 net799
*1272 net8
*1273 net80
*1274 net800
*1275 net801
*1276 net802
*1277 net803
*1278 net804
*1279 net805
*1280 net806
*1281 net807
*1282 net808
*1283 net809
*1284 net81
*1285 net810
*1286 net811
*1287 net812
*1288 net813
*1289 net814
*1290 net815
*1291 net816
*1292 net817
*1293 net818
*1294 net819
*1295 net82
*1296 net820
*1297 net821
*1298 net822
*1299 net823
*1300 net824
*1301 net825
*1302 net826
*1303 net827
*1304 net828
*1305 net829
*1306 net83
*1307 net830
*1308 net831
*1309 net832
*1310 net833
*1311 net834
*1312 net835
*1313 net836
*1314 net837
*1315 net838
*1316 net839
*1317 net84
*1318 net840
*1319 net841
*1320 net842
*1321 net843
*1322 net844
*1323 net845
*1324 net846
*1325 net847
*1326 net848
*1327 net849
*1328 net85
*1329 net850
*1330 net851
*1331 net852
*1332 net853
*1333 net854
*1334 net855
*1335 net856
*1336 net857
*1337 net858
*1338 net859
*1339 net86
*1340 net860
*1341 net861
*1342 net862
*1343 net863
*1344 net864
*1345 net865
*1346 net866
*1347 net867
*1348 net868
*1349 net869
*1350 net87
*1351 net870
*1352 net871
*1353 net872
*1354 net873
*1355 net874
*1356 net875
*1357 net876
*1358 net877
*1359 net878
*1360 net879
*1361 net88
*1362 net880
*1363 net881
*1364 net882
*1365 net883
*1366 net884
*1367 net885
*1368 net886
*1369 net887
*1370 net888
*1371 net889
*1372 net89
*1373 net890
*1374 net891
*1375 net892
*1376 net893
*1377 net894
*1378 net895
*1379 net896
*1380 net897
*1381 net898
*1382 net899
*1383 net9
*1384 net90
*1385 net900
*1386 net901
*1387 net902
*1388 net903
*1389 net904
*1390 net905
*1391 net906
*1392 net907
*1393 net908
*1394 net909
*1395 net91
*1396 net910
*1397 net911
*1398 net912
*1399 net913
*1400 net914
*1401 net915
*1402 net916
*1403 net917
*1404 net918
*1405 net919
*1406 net92
*1407 net920
*1408 net921
*1409 net922
*1410 net923
*1411 net924
*1412 net925
*1413 net926
*1414 net927
*1415 net928
*1416 net929
*1417 net93
*1418 net930
*1419 net931
*1420 net932
*1421 net933
*1422 net934
*1423 net935
*1424 net936
*1425 net937
*1426 net938
*1427 net939
*1428 net94
*1429 net940
*1430 net941
*1431 net942
*1432 net943
*1433 net944
*1434 net945
*1435 net946
*1436 net947
*1437 net948
*1438 net949
*1439 net95
*1440 net950
*1441 net951
*1442 net952
*1443 net953
*1444 net954
*1445 net955
*1446 net956
*1447 net957
*1448 net958
*1449 net959
*1450 net96
*1451 net960
*1452 net961
*1453 net962
*1454 net963
*1455 net964
*1456 net965
*1457 net966
*1458 net967
*1459 net968
*1460 net969
*1461 net97
*1462 net970
*1463 net971
*1464 net972
*1465 net973
*1466 net974
*1467 net975
*1468 net976
*1469 net977
*1470 net978
*1471 net979
*1472 net98
*1473 net980
*1474 net981
*1475 net982
*1476 net983
*1477 net984
*1478 net985
*1479 net986
*1480 net987
*1481 net988
*1482 net989
*1483 net99
*1484 net990
*1485 net991
*1486 net992
*1487 net993
*1488 net994
*1489 net995
*1490 net996
*1491 net997
*1492 net998
*1493 net999
*1494 ANTENNA_1
*1495 ANTENNA_2
*1496 ANTENNA_c100_B
*1497 ANTENNA_c100_D_N
*1498 ANTENNA_c101_B
*1499 ANTENNA_c101_X
*1500 ANTENNA_c102_B
*1501 ANTENNA_c102_C_N
*1502 ANTENNA_c102_X
*1503 ANTENNA_c103_A2
*1504 ANTENNA_c103_C1
*1505 ANTENNA_c103_D1
*1506 ANTENNA_c104_A0
*1507 ANTENNA_c104_A1
*1508 ANTENNA_c104_A2
*1509 ANTENNA_c104_A3
*1510 ANTENNA_c105_A0
*1511 ANTENNA_c105_A2
*1512 ANTENNA_c105_S1
*1513 ANTENNA_c106_A2
*1514 ANTENNA_c106_A3
*1515 ANTENNA_c106_S0
*1516 ANTENNA_c107_A1
*1517 ANTENNA_c107_A2
*1518 ANTENNA_c107_S0
*1519 ANTENNA_c108_A1
*1520 ANTENNA_c108_S0
*1521 ANTENNA_c108_S1
*1522 ANTENNA_c109_A3
*1523 ANTENNA_c109_X
*1524 ANTENNA_c110_B
*1525 ANTENNA_c110_C
*1526 ANTENNA_c111_A
*1527 ANTENNA_c111_C_N
*1528 ANTENNA_c111_D_N
*1529 ANTENNA_c112_A
*1530 ANTENNA_c112_B
*1531 ANTENNA_c112_C
*1532 ANTENNA_c113_C
*1533 ANTENNA_c113_X
*1534 ANTENNA_c115_A
*1535 ANTENNA_c115_C
*1536 ANTENNA_c116_A2
*1537 ANTENNA_c116_C1
*1538 ANTENNA_c117_B
*1539 ANTENNA_c117_C
*1540 ANTENNA_c118_A1
*1541 ANTENNA_c118_C1
*1542 ANTENNA_c118_D1
*1543 ANTENNA_c119_B
*1544 ANTENNA_c119_C
*1545 ANTENNA_c120_C
*1546 ANTENNA_c121_A
*1547 ANTENNA_c121_B
*1548 ANTENNA_c121_C
*1549 ANTENNA_c121_X
*1550 ANTENNA_c122_A
*1551 ANTENNA_c122_C_N
*1552 ANTENNA_c123_A3
*1553 ANTENNA_c123_S1
*1554 ANTENNA_c124_A2
*1555 ANTENNA_c124_D1
*1556 ANTENNA_c126_B
*1557 ANTENNA_c128_C
*1558 ANTENNA_c129_A2
*1559 ANTENNA_c129_A3
*1560 ANTENNA_c129_S1
*1561 ANTENNA_c130_A1
*1562 ANTENNA_c131_S0
*1563 ANTENNA_c131_X
*1564 ANTENNA_c132_A
*1565 ANTENNA_c132_B
*1566 ANTENNA_c132_X
*1567 ANTENNA_c133_A
*1568 ANTENNA_c133_B
*1569 ANTENNA_c133_C
*1570 ANTENNA_c133_X
*1571 ANTENNA_c134_B
*1572 ANTENNA_c134_C
*1573 ANTENNA_c134_X
*1574 ANTENNA_c135_A
*1575 ANTENNA_c135_B
*1576 ANTENNA_c135_X
*1577 ANTENNA_c136_A
*1578 ANTENNA_c136_B
*1579 ANTENNA_c136_C
*1580 ANTENNA_c136_X
*1581 ANTENNA_c137_A
*1582 ANTENNA_c137_B
*1583 ANTENNA_c137_C_N
*1584 ANTENNA_c137_D_N
*1585 ANTENNA_c138_B
*1586 ANTENNA_c138_C
*1587 ANTENNA_c138_X
*1588 ANTENNA_c139_A
*1589 ANTENNA_c139_B
*1590 ANTENNA_c139_C
*1591 ANTENNA_c139_X
*1592 ANTENNA_c140_A
*1593 ANTENNA_c140_B
*1594 ANTENNA_c140_C_N
*1595 ANTENNA_c140_D_N
*1596 ANTENNA_c140_X
*1597 ANTENNA_c141_A
*1598 ANTENNA_c141_B
*1599 ANTENNA_c141_C
*1600 ANTENNA_c142_A
*1601 ANTENNA_c142_B
*1602 ANTENNA_c142_C
*1603 ANTENNA_c142_X
*1604 ANTENNA_c143_A1
*1605 ANTENNA_c143_A2
*1606 ANTENNA_c143_B1
*1607 ANTENNA_c143_C1
*1608 ANTENNA_c143_D1
*1609 ANTENNA_c144_A
*1610 ANTENNA_c144_B
*1611 ANTENNA_c144_C
*1612 ANTENNA_c145_A0
*1613 ANTENNA_c145_A1
*1614 ANTENNA_c145_A2
*1615 ANTENNA_c145_A3
*1616 ANTENNA_c145_S0
*1617 ANTENNA_c145_S1
*1618 ANTENNA_c145_X
*1619 ANTENNA_c146_A
*1620 ANTENNA_c146_B
*1621 ANTENNA_c146_C
*1622 ANTENNA_c146_X
*1623 ANTENNA_c147_A0
*1624 ANTENNA_c147_A1
*1625 ANTENNA_c147_A2
*1626 ANTENNA_c147_A3
*1627 ANTENNA_c147_S0
*1628 ANTENNA_c147_S1
*1629 ANTENNA_c147_X
*1630 ANTENNA_c148_A
*1631 ANTENNA_c148_B
*1632 ANTENNA_c148_C_N
*1633 ANTENNA_c148_D_N
*1634 ANTENNA_c148_X
*1635 ANTENNA_c149_A
*1636 ANTENNA_c149_B
*1637 ANTENNA_c149_C
*1638 ANTENNA_c150_A
*1639 ANTENNA_c150_B
*1640 ANTENNA_c150_C_N
*1641 ANTENNA_c150_D_N
*1642 ANTENNA_c150_X
*1643 ANTENNA_c151_A1
*1644 ANTENNA_c151_A2
*1645 ANTENNA_c151_C1
*1646 ANTENNA_c151_D1
*1647 ANTENNA_c151_X
*1648 ANTENNA_c152_A0
*1649 ANTENNA_c152_A2
*1650 ANTENNA_c152_A3
*1651 ANTENNA_c152_S0
*1652 ANTENNA_c152_S1
*1653 ANTENNA_c152_X
*1654 ANTENNA_c153_A0
*1655 ANTENNA_c153_A1
*1656 ANTENNA_c153_A2
*1657 ANTENNA_c153_A3
*1658 ANTENNA_c153_S0
*1659 ANTENNA_c153_S1
*1660 ANTENNA_c153_X
*1661 ANTENNA_c154_A
*1662 ANTENNA_c154_B
*1663 ANTENNA_c154_C_N
*1664 ANTENNA_c154_D_N
*1665 ANTENNA_c155_A1
*1666 ANTENNA_c155_A2
*1667 ANTENNA_c155_B1
*1668 ANTENNA_c155_C1
*1669 ANTENNA_c155_D1
*1670 ANTENNA_c155_X
*1671 ANTENNA_c156_A
*1672 ANTENNA_c156_C
*1673 ANTENNA_c157_A0
*1674 ANTENNA_c157_A2
*1675 ANTENNA_c157_A3
*1676 ANTENNA_c157_S0
*1677 ANTENNA_c157_S1
*1678 ANTENNA_c158_B
*1679 ANTENNA_c158_C
*1680 ANTENNA_c158_X
*1681 ANTENNA_c159_A
*1682 ANTENNA_c159_C
*1683 ANTENNA_c160_C
*1684 ANTENNA_c160_X
*1685 ANTENNA_c161_A1
*1686 ANTENNA_c161_A2
*1687 ANTENNA_c161_A3
*1688 ANTENNA_c161_S0
*1689 ANTENNA_c161_S1
*1690 ANTENNA_c162_A0
*1691 ANTENNA_c162_A2
*1692 ANTENNA_c162_A3
*1693 ANTENNA_c162_S0
*1694 ANTENNA_c162_S1
*1695 ANTENNA_c163_A
*1696 ANTENNA_c163_B
*1697 ANTENNA_c163_C_N
*1698 ANTENNA_c163_D_N
*1699 ANTENNA_c163_X
*1700 ANTENNA_c164_B
*1701 ANTENNA_c164_C_N
*1702 ANTENNA_c164_D_N
*1703 ANTENNA_c165_A0
*1704 ANTENNA_c165_A1
*1705 ANTENNA_c165_A2
*1706 ANTENNA_c165_A3
*1707 ANTENNA_c165_S0
*1708 ANTENNA_c166_A1
*1709 ANTENNA_c166_A2
*1710 ANTENNA_c166_D1
*1711 ANTENNA_c167_A1
*1712 ANTENNA_c167_A2
*1713 ANTENNA_c167_B1
*1714 ANTENNA_c168_A0
*1715 ANTENNA_c168_A1
*1716 ANTENNA_c168_A3
*1717 ANTENNA_c168_S0
*1718 ANTENNA_c168_S1
*1719 ANTENNA_c169_B
*1720 ANTENNA_c170_A1
*1721 ANTENNA_c170_A2
*1722 ANTENNA_c170_A3
*1723 ANTENNA_c170_S1
*1724 ANTENNA_c171_A1
*1725 ANTENNA_c171_B1
*1726 ANTENNA_c171_X
*1727 ANTENNA_c172_A1
*1728 ANTENNA_c173_A
*1729 ANTENNA_c173_X
*1730 ANTENNA_c174_A
*1731 ANTENNA_c174_X
*1732 ANTENNA_c175_A0
*1733 ANTENNA_c175_A2
*1734 ANTENNA_c175_A3
*1735 ANTENNA_c175_S0
*1736 ANTENNA_c175_S1
*1737 ANTENNA_c176_B
*1738 ANTENNA_c176_C_N
*1739 ANTENNA_c176_D_N
*1740 ANTENNA_c177_A
*1741 ANTENNA_c177_B
*1742 ANTENNA_c177_D_N
*1743 ANTENNA_c178_A1
*1744 ANTENNA_c178_A2
*1745 ANTENNA_c178_B1
*1746 ANTENNA_c178_C1
*1747 ANTENNA_c178_D1
*1748 ANTENNA_c178_X
*1749 ANTENNA_c179_B
*1750 ANTENNA_c179_C
*1751 ANTENNA_c180_B
*1752 ANTENNA_c181_B
*1753 ANTENNA_c181_C
*1754 ANTENNA_c181_X
*1755 ANTENNA_c182_A1
*1756 ANTENNA_c182_A2
*1757 ANTENNA_c182_D1
*1758 ANTENNA_c182_X
*1759 ANTENNA_c183_B
*1760 ANTENNA_c183_C_N
*1761 ANTENNA_c183_D_N
*1762 ANTENNA_c183_X
*1763 ANTENNA_c184_A
*1764 ANTENNA_c184_C_N
*1765 ANTENNA_c184_X
*1766 ANTENNA_c185_A
*1767 ANTENNA_c185_B
*1768 ANTENNA_c185_C
*1769 ANTENNA_c186_A
*1770 ANTENNA_c186_D_N
*1771 ANTENNA_c186_X
*1772 ANTENNA_c187_A
*1773 ANTENNA_c187_B
*1774 ANTENNA_c187_C_N
*1775 ANTENNA_c187_X
*1776 ANTENNA_c188_A
*1777 ANTENNA_c188_B
*1778 ANTENNA_c189_A1
*1779 ANTENNA_c189_A2
*1780 ANTENNA_c189_S0
*1781 ANTENNA_c189_S1
*1782 ANTENNA_c189_X
*1783 ANTENNA_c190_C_N
*1784 ANTENNA_c191_A0
*1785 ANTENNA_c191_A1
*1786 ANTENNA_c191_S0
*1787 ANTENNA_c191_S1
*1788 ANTENNA_c192_A3
*1789 ANTENNA_c192_S0
*1790 ANTENNA_c193_A1
*1791 ANTENNA_c193_B1
*1792 ANTENNA_c193_D1
*1793 ANTENNA_c194_D1
*1794 ANTENNA_c195_A0
*1795 ANTENNA_c195_A3
*1796 ANTENNA_c195_S1
*1797 ANTENNA_c196_A1
*1798 ANTENNA_c196_A2
*1799 ANTENNA_c196_C1
*1800 ANTENNA_c196_D1
*1801 ANTENNA_c197_A1
*1802 ANTENNA_c197_A2
*1803 ANTENNA_c197_A3
*1804 ANTENNA_c197_S0
*1805 ANTENNA_c197_S1
*1806 ANTENNA_c197_X
*1807 ANTENNA_c198_A
*1808 ANTENNA_c198_C_N
*1809 ANTENNA_c198_D_N
*1810 ANTENNA_c198_X
*1811 ANTENNA_c199_A2
*1812 ANTENNA_c199_A3
*1813 ANTENNA_c199_S0
*1814 ANTENNA_c199_X
*1815 ANTENNA_c200_A1
*1816 ANTENNA_c200_A2
*1817 ANTENNA_c200_C1
*1818 ANTENNA_c200_D1
*1819 ANTENNA_c201_A2
*1820 ANTENNA_c201_B1
*1821 ANTENNA_c201_C1
*1822 ANTENNA_c201_D1
*1823 ANTENNA_c202_A1
*1824 ANTENNA_c202_A2
*1825 ANTENNA_c202_S0
*1826 ANTENNA_c202_S1
*1827 ANTENNA_c202_X
*1828 ANTENNA_c203_A1
*1829 ANTENNA_c203_A2
*1830 ANTENNA_c203_B1
*1831 ANTENNA_c203_D1
*1832 ANTENNA_c204_B1
*1833 ANTENNA_c204_C1
*1834 ANTENNA_c204_D1
*1835 ANTENNA_c204_X
*1836 ANTENNA_c205_B1
*1837 ANTENNA_c205_C1
*1838 ANTENNA_c205_D1
*1839 ANTENNA_c205_X
*1840 ANTENNA_c206_A1
*1841 ANTENNA_c206_A2
*1842 ANTENNA_c206_A3
*1843 ANTENNA_c206_S0
*1844 ANTENNA_c207_Q
*1845 ANTENNA_c207_Q_N
*1846 ANTENNA_c207_RESET_B
*1847 ANTENNA_c207_SCD
*1848 ANTENNA_c207_SCE
*1849 ANTENNA_c207_SET_B
*1850 ANTENNA_c208_A2
*1851 ANTENNA_c208_A3
*1852 ANTENNA_c208_S0
*1853 ANTENNA_c208_X
*1854 ANTENNA_c209_A1
*1855 ANTENNA_c209_A2
*1856 ANTENNA_c209_C1
*1857 ANTENNA_c209_D1
*1858 ANTENNA_c210_A1
*1859 ANTENNA_c210_A2
*1860 ANTENNA_c210_B1
*1861 ANTENNA_c210_D1
*1862 ANTENNA_c211_B1
*1863 ANTENNA_c211_D1
*1864 ANTENNA_c212_A1
*1865 ANTENNA_c212_B1
*1866 ANTENNA_c212_C1
*1867 ANTENNA_c213_A1
*1868 ANTENNA_c213_A2
*1869 ANTENNA_c213_A3
*1870 ANTENNA_c213_S0
*1871 ANTENNA_c214_A1
*1872 ANTENNA_c214_A2
*1873 ANTENNA_c214_S0
*1874 ANTENNA_c214_S1
*1875 ANTENNA_c215_A2