*SPEF "ieee 1481-1999"
*DESIGN "netlist_2"
*DATE "23:02:25 Sunday July 28, 2024"
*VENDOR "The OpenROAD Project"
*PROGRAM "OpenROAD"
*VERSION "d423155d69de7f683a23f6916ead418a615ad4ad"
*DESIGN_FLOW "NAME_SCOPE LOCAL" "PIN_CAP NONE"
*DIVIDER /
*DELIMITER :
*BUS_DELIMITER []
*T_UNIT 1 NS
*C_UNIT 1 PF
*R_UNIT 1 OHM
*L_UNIT 1 HENRY

*NAME_MAP
*3 clk
*4 in0
*5 in1
*6 in10
*7 in11
*8 in12
*9 in13
*10 in14
*11 in15
*12 in16
*13 in17
*14 in18
*15 in19
*16 in2
*17 in20
*18 in21
*19 in22
*20 in23
*21 in24
*22 in25
*23 in26
*24 in27
*25 in28
*26 in29
*27 in3
*28 in30
*29 in31
*30 in32
*31 in33
*32 in34
*33 in35
*34 in36
*35 in37
*36 in38
*37 in39
*38 in4
*39 in40
*40 in41
*41 in42
*42 in43
*43 in44
*44 in45
*45 in46
*46 in47
*47 in48
*48 in49
*49 in5
*50 in50
*51 in51
*52 in52
*53 in53
*54 in54
*55 in55
*56 in56
*57 in57
*58 in58
*59 in59
*60 in6
*61 in60
*62 in61
*63 in62
*64 in63
*65 in64
*66 in65
*67 in66
*68 in67
*69 in68
*70 in69
*71 in7
*72 in70
*73 in71
*74 in72
*75 in73
*76 in74
*77 in75
*78 in76
*79 in77
*80 in78
*81 in79
*82 in8
*83 in80
*84 in81
*85 in82
*86 in83
*87 in84
*88 in85
*89 in86
*90 in87
*91 in88
*92 in89
*93 in9
*94 in90
*95 in91
*96 in92
*97 in93
*98 in94
*99 in95
*100 in96
*101 in97
*102 in98
*103 in99
*104 out0
*105 out1
*106 out10
*107 out11
*108 out12
*109 out13
*110 out14
*111 out15
*112 out16
*113 out17
*114 out18
*115 out19
*116 out2
*117 out20
*118 out21
*119 out22
*120 out23
*121 out24
*122 out25
*123 out26
*124 out27
*125 out28
*126 out29
*127 out3
*128 out30
*129 out31
*130 out32
*131 out33
*132 out34
*133 out35
*134 out36
*135 out37
*136 out38
*137 out39
*138 out4
*139 out40
*140 out41
*141 out42
*142 out43
*143 out44
*144 out45
*145 out46
*146 out47
*147 out48
*148 out49
*149 out5
*150 out50
*151 out51
*152 out52
*153 out53
*154 out54
*155 out55
*156 out56
*157 out57
*158 out58
*159 out59
*160 out6
*161 out60
*162 out61
*163 out62
*164 out63
*165 out64
*166 out65
*167 out66
*168 out67
*169 out68
*170 out69
*171 out7
*172 out70
*173 out71
*174 out72
*175 out73
*176 out74
*177 out75
*178 out76
*179 out77
*180 out78
*181 out79
*182 out8
*183 out80
*184 out81
*185 out82
*186 out83
*187 out84
*188 out85
*189 out86
*190 out87
*191 out88
*192 out89
*193 out9
*194 out90
*195 out91
*196 out92
*197 out93
*198 out94
*199 out95
*200 out96
*201 out97
*202 out98
*203 out99
*204 rst
*205 clknet_0_clk
*206 clknet_0_net191
*207 clknet_0_net204
*208 clknet_0_net207
*209 clknet_0_net282
*210 clknet_0_net285
*211 clknet_0_net286
*212 clknet_0_net289
*213 clknet_0_net290
*214 clknet_0_net291
*215 clknet_0_net314
*216 clknet_0_net317
*217 clknet_0_net318
*218 clknet_0_net380
*219 clknet_0_net392
*220 clknet_0_net396
*221 clknet_0_net398
*222 clknet_0_net401
*223 clknet_0_net412
*224 clknet_0_net420
*225 clknet_0_net459
*226 clknet_0_net463
*227 clknet_0_net466
*228 clknet_0_net473
*229 clknet_0_net482
*230 clknet_0_net488
*231 clknet_0_net502
*232 clknet_0_net504
*233 clknet_0_net511
*234 clknet_0_net521
*235 clknet_0_net522
*236 clknet_0_net526
*237 clknet_0_net604
*238 clknet_0_net605
*239 clknet_0_net637
*240 clknet_0_net638
*241 clknet_0_net654
*242 clknet_0_net655
*243 clknet_0_net656
*244 clknet_0_net675
*245 clknet_0_net676
*246 clknet_0_net677
*247 clknet_0_net696
*248 clknet_0_net697
*249 clknet_0_net698
*250 clknet_0_net75
*251 clknet_0_net809
*252 clknet_0_net812
*253 clknet_0_net816
*254 clknet_0_net821
*255 clknet_0_net824
*256 clknet_0_net836
*257 clknet_0_net838
*258 clknet_0_net841
*259 clknet_0_net852
*260 clknet_0_net855
*261 clknet_0_net862
*262 clknet_0_net94
*263 clknet_1_0__leaf_net191
*264 clknet_1_0__leaf_net204
*265 clknet_1_0__leaf_net207
*266 clknet_1_0__leaf_net282
*267 clknet_1_0__leaf_net285
*268 clknet_1_0__leaf_net286
*269 clknet_1_0__leaf_net289
*270 clknet_1_0__leaf_net290
*271 clknet_1_0__leaf_net291
*272 clknet_1_0__leaf_net314
*273 clknet_1_0__leaf_net317
*274 clknet_1_0__leaf_net318
*275 clknet_1_0__leaf_net380
*276 clknet_1_0__leaf_net392
*277 clknet_1_0__leaf_net396
*278 clknet_1_0__leaf_net398
*279 clknet_1_0__leaf_net401
*280 clknet_1_0__leaf_net412
*281 clknet_1_0__leaf_net420
*282 clknet_1_0__leaf_net459
*283 clknet_1_0__leaf_net463
*284 clknet_1_0__leaf_net466
*285 clknet_1_0__leaf_net473
*286 clknet_1_0__leaf_net482
*287 clknet_1_0__leaf_net488
*288 clknet_1_0__leaf_net502
*289 clknet_1_0__leaf_net504
*290 clknet_1_0__leaf_net511
*291 clknet_1_0__leaf_net521
*292 clknet_1_0__leaf_net522
*293 clknet_1_0__leaf_net526
*294 clknet_1_0__leaf_net604
*295 clknet_1_0__leaf_net605
*296 clknet_1_0__leaf_net637
*297 clknet_1_0__leaf_net638
*298 clknet_1_0__leaf_net654
*299 clknet_1_0__leaf_net655
*300 clknet_1_0__leaf_net656
*301 clknet_1_0__leaf_net675
*302 clknet_1_0__leaf_net676
*303 clknet_1_0__leaf_net677
*304 clknet_1_0__leaf_net696
*305 clknet_1_0__leaf_net697
*306 clknet_1_0__leaf_net698
*307 clknet_1_0__leaf_net75
*308 clknet_1_0__leaf_net809
*309 clknet_1_0__leaf_net812
*310 clknet_1_0__leaf_net816
*311 clknet_1_0__leaf_net821
*312 clknet_1_0__leaf_net824
*313 clknet_1_0__leaf_net836
*314 clknet_1_0__leaf_net838
*315 clknet_1_0__leaf_net841
*316 clknet_1_0__leaf_net852
*317 clknet_1_0__leaf_net855
*318 clknet_1_0__leaf_net862
*319 clknet_1_0__leaf_net94
*320 clknet_1_1__leaf_net191
*321 clknet_1_1__leaf_net204
*322 clknet_1_1__leaf_net207
*323 clknet_1_1__leaf_net282
*324 clknet_1_1__leaf_net285
*325 clknet_1_1__leaf_net286
*326 clknet_1_1__leaf_net289
*327 clknet_1_1__leaf_net290
*328 clknet_1_1__leaf_net291
*329 clknet_1_1__leaf_net314
*330 clknet_1_1__leaf_net317
*331 clknet_1_1__leaf_net318
*332 clknet_1_1__leaf_net380
*333 clknet_1_1__leaf_net392
*334 clknet_1_1__leaf_net396
*335 clknet_1_1__leaf_net398
*336 clknet_1_1__leaf_net401
*337 clknet_1_1__leaf_net412
*338 clknet_1_1__leaf_net420
*339 clknet_1_1__leaf_net459
*340 clknet_1_1__leaf_net463
*341 clknet_1_1__leaf_net466
*342 clknet_1_1__leaf_net473
*343 clknet_1_1__leaf_net482
*344 clknet_1_1__leaf_net488
*345 clknet_1_1__leaf_net502
*346 clknet_1_1__leaf_net504
*347 clknet_1_1__leaf_net511
*348 clknet_1_1__leaf_net521
*349 clknet_1_1__leaf_net522
*350 clknet_1_1__leaf_net526
*351 clknet_1_1__leaf_net604
*352 clknet_1_1__leaf_net605
*353 clknet_1_1__leaf_net637
*354 clknet_1_1__leaf_net638
*355 clknet_1_1__leaf_net654
*356 clknet_1_1__leaf_net655
*357 clknet_1_1__leaf_net656
*358 clknet_1_1__leaf_net675
*359 clknet_1_1__leaf_net676
*360 clknet_1_1__leaf_net677
*361 clknet_1_1__leaf_net696
*362 clknet_1_1__leaf_net697
*363 clknet_1_1__leaf_net698
*364 clknet_1_1__leaf_net75
*365 clknet_1_1__leaf_net809
*366 clknet_1_1__leaf_net812
*367 clknet_1_1__leaf_net816
*368 clknet_1_1__leaf_net821
*369 clknet_1_1__leaf_net824
*370 clknet_1_1__leaf_net836
*371 clknet_1_1__leaf_net838
*372 clknet_1_1__leaf_net841
*373 clknet_1_1__leaf_net852
*374 clknet_1_1__leaf_net855
*375 clknet_1_1__leaf_net862
*376 clknet_1_1__leaf_net94
*377 clknet_4_0_0_clk
*378 clknet_4_10_0_clk
*379 clknet_4_11_0_clk
*380 clknet_4_12_0_clk
*381 clknet_4_13_0_clk
*382 clknet_4_14_0_clk
*383 clknet_4_15_0_clk
*384 clknet_4_1_0_clk
*385 clknet_4_2_0_clk
*386 clknet_4_3_0_clk
*387 clknet_4_4_0_clk
*388 clknet_4_5_0_clk
*389 clknet_4_6_0_clk
*390 clknet_4_7_0_clk
*391 clknet_4_8_0_clk
*392 clknet_4_9_0_clk
*393 net0
*394 net1
*395 net10
*396 net100
*397 net101
*398 net102
*399 net103
*400 net104
*401 net105
*402 net106
*403 net107
*404 net108
*405 net109
*406 net11
*407 net110
*408 net111
*409 net112
*410 net113
*411 net114
*412 net115
*413 net116
*414 net117
*415 net118
*416 net119
*417 net12
*418 net120
*419 net121
*420 net122
*421 net123
*422 net124
*423 net125
*424 net126
*425 net127
*426 net128
*427 net129
*428 net13
*429 net130
*430 net131
*431 net132
*432 net133
*433 net134
*434 net135
*435 net136
*436 net137
*437 net138
*438 net139
*439 net14
*440 net140
*441 net141
*442 net142
*443 net143
*444 net144
*445 net145
*446 net146
*447 net147
*448 net148
*449 net149
*450 net15
*451 net150
*452 net151
*453 net152
*454 net153
*455 net154
*456 net155
*457 net156
*458 net157
*459 net158
*460 net159
*461 net16
*462 net160
*463 net161
*464 net162
*465 net163
*466 net164
*467 net165
*468 net166
*469 net167
*470 net168
*471 net169
*472 net17
*473 net170
*474 net171
*475 net172
*476 net173
*477 net174
*478 net175
*479 net176
*480 net177
*481 net178
*482 net179
*483 net18
*484 net180
*485 net181
*486 net182
*487 net183
*488 net184
*489 net185
*490 net186
*491 net187
*492 net188
*493 net189
*494 net19
*495 net190
*496 net191
*497 net192
*498 net193
*499 net194
*500 net195
*501 net196
*502 net197
*503 net198
*504 net199
*505 net2
*506 net20
*507 net200
*508 net201
*509 net202
*510 net203
*511 net204
*512 net205
*513 net206
*514 net207
*515 net208
*516 net209
*517 net21
*518 net210
*519 net211
*520 net212
*521 net213
*522 net214
*523 net215
*524 net216
*525 net217
*526 net218
*527 net219
*528 net22
*529 net220
*530 net221
*531 net222
*532 net223
*533 net224
*534 net225
*535 net226
*536 net227
*537 net228
*538 net229
*539 net23
*540 net230
*541 net231
*542 net232
*543 net233
*544 net234
*545 net235
*546 net236
*547 net237
*548 net238
*549 net239
*550 net24
*551 net240
*552 net241
*553 net242
*554 net243
*555 net244
*556 net245
*557 net246
*558 net247
*559 net248
*560 net249
*561 net25
*562 net250
*563 net251
*564 net252
*565 net253
*566 net254
*567 net255
*568 net256
*569 net257
*570 net258
*571 net259
*572 net26
*573 net260
*574 net261
*575 net262
*576 net263
*577 net264
*578 net265
*579 net266
*580 net267
*581 net268
*582 net269
*583 net27
*584 net270
*585 net271
*586 net272
*587 net273
*588 net274
*589 net275
*590 net276
*591 net277
*592 net278
*593 net279
*594 net28
*595 net280
*596 net281
*597 net282
*598 net283
*599 net284
*600 net285
*601 net286
*602 net287
*603 net288
*604 net289
*605 net29
*606 net290
*607 net291
*608 net292
*609 net293
*610 net294
*611 net295
*612 net296
*613 net297
*614 net298
*615 net299
*616 net3
*617 net30
*618 net300
*619 net301
*620 net302
*621 net303
*622 net304
*623 net305
*624 net306
*625 net307
*626 net308
*627 net309
*628 net31
*629 net310
*630 net311
*631 net312
*632 net313
*633 net314
*634 net315
*635 net316
*636 net317
*637 net318
*638 net319
*639 net32
*640 net320
*641 net321
*642 net322
*643 net323
*644 net324
*645 net325
*646 net326
*647 net327
*648 net328
*649 net329
*650 net33
*651 net330
*652 net331
*653 net332
*654 net333
*655 net334
*656 net335
*657 net336
*658 net337
*659 net338
*660 net339
*661 net34
*662 net340
*663 net341
*664 net342
*665 net343
*666 net344
*667 net345
*668 net346
*669 net347
*670 net348
*671 net349
*672 net35
*673 net350
*674 net351
*675 net352
*676 net353
*677 net354
*678 net355
*679 net356
*680 net357
*681 net358
*682 net359
*683 net36
*684 net360
*685 net361
*686 net362
*687 net363
*688 net364
*689 net365
*690 net366
*691 net367
*692 net368
*693 net369
*694 net37
*695 net370
*696 net371
*697 net372
*698 net373
*699 net374
*700 net375
*701 net376
*702 net377
*703 net378
*704 net379
*705 net38
*706 net380
*707 net381
*708 net382
*709 net383
*710 net384
*711 net385
*712 net386
*713 net387
*714 net388
*715 net389
*716 net39
*717 net390
*718 net391
*719 net392
*720 net393
*721 net394
*722 net395
*723 net396
*724 net397
*725 net398
*726 net399
*727 net4
*728 net40
*729 net400
*730 net401
*731 net402
*732 net403
*733 net404
*734 net405
*735 net406
*736 net407
*737 net408
*738 net409
*739 net41
*740 net410
*741 net411
*742 net412
*743 net413
*744 net414
*745 net415
*746 net416
*747 net417
*748 net418
*749 net419
*750 net42
*751 net420
*752 net421
*753 net422
*754 net423
*755 net424
*756 net425
*757 net426
*758 net427
*759 net428
*760 net429
*761 net43
*762 net430
*763 net431
*764 net432
*765 net433
*766 net434
*767 net435
*768 net436
*769 net437
*770 net438
*771 net439
*772 net44
*773 net440
*774 net441
*775 net442
*776 net443
*777 net444
*778 net445
*779 net446
*780 net447
*781 net448
*782 net449
*783 net45
*784 net450
*785 net451
*786 net452
*787 net453
*788 net454
*789 net455
*790 net456
*791 net457
*792 net458
*793 net459
*794 net46
*795 net460
*796 net461
*797 net462
*798 net463
*799 net464
*800 net465
*801 net466
*802 net467
*803 net468
*804 net469
*805 net47
*806 net470
*807 net471
*808 net472
*809 net473
*810 net474
*811 net475
*812 net476
*813 net477
*814 net478
*815 net479
*816 net48
*817 net480
*818 net481
*819 net482
*820 net483
*821 net484
*822 net485
*823 net486
*824 net487
*825 net488
*826 net489
*827 net49
*828 net490
*829 net491
*830 net492
*831 net493
*832 net494
*833 net495
*834 net496
*835 net497
*836 net498
*837 net499
*838 net5
*839 net50
*840 net500
*841 net501
*842 net502
*843 net503
*844 net504
*845 net505
*846 net506
*847 net507
*848 net508
*849 net509
*850 net51
*851 net510
*852 net511
*853 net512
*854 net513
*855 net514
*856 net515
*857 net516
*858 net517
*859 net518
*860 net519
*861 net52
*862 net520
*863 net521
*864 net522
*865 net523
*866 net524
*867 net525
*868 net526
*869 net527
*870 net528
*871 net529
*872 net53
*873 net530
*874 net531
*875 net532
*876 net533
*877 net534
*878 net535
*879 net536
*880 net537
*881 net538
*882 net539
*883 net54
*884 net540
*885 net541
*886 net542
*887 net543
*888 net544
*889 net545
*890 net546
*891 net547
*892 net548
*893 net549
*894 net55
*895 net550
*896 net551
*897 net552
*898 net553
*899 net554
*900 net555
*901 net556
*902 net557
*903 net558
*904 net559
*905 net56
*906 net560
*907 net561
*908 net562
*909 net563
*910 net564
*911 net565
*912 net566
*913 net567
*914 net568
*915 net569
*916 net57
*917 net570
*918 net571
*919 net572
*920 net573
*921 net574
*922 net575
*923 net576
*924 net577
*925 net578
*926 net579
*927 net58
*928 net580
*929 net581
*930 net582
*931 net583
*932 net584
*933 net585
*934 net586
*935 net587
*936 net588
*937 net589
*938 net59
*939 net590
*940 net591
*941 net592
*942 net593
*943 net594
*944 net595
*945 net596
*946 net597
*947 net598
*948 net599
*949 net6
*950 net60
*951 net600
*952 net601
*953 net602
*954 net603
*955 net604
*956 net605
*957 net606
*958 net607
*959 net608
*960 net609
*961 net61
*962 net610
*963 net611
*964 net612
*965 net613
*966 net614
*967 net615
*968 net616
*969 net617
*970 net618
*971 net619
*972 net62
*973 net620
*974 net621
*975 net622
*976 net623
*977 net624
*978 net625
*979 net626
*980 net627
*981 net628
*982 net629
*983 net63
*984 net630
*985 net631
*986 net632
*987 net633
*988 net634
*989 net635
*990 net636
*991 net637
*992 net638
*993 net639
*994 net64
*995 net640
*996 net641
*997 net642
*998 net643
*999 net644
*1000 net645
*1001 net646
*1002 net647
*1003 net648
*1004 net649
*1005 net65
*1006 net650
*1007 net651
*1008 net652
*1009 net653
*1010 net654
*1011 net655
*1012 net656
*1013 net657
*1014 net658
*1015 net659
*1016 net66
*1017 net660
*1018 net661
*1019 net662
*1020 net663
*1021 net664
*1022 net665
*1023 net666
*1024 net667
*1025 net668
*1026 net669
*1027 net67
*1028 net670
*1029 net671
*1030 net672
*1031 net673
*1032 net674
*1033 net675
*1034 net676
*1035 net677
*1036 net678
*1037 net679
*1038 net68
*1039 net680
*1040 net681
*1041 net682
*1042 net683
*1043 net684
*1044 net685
*1045 net686
*1046 net687
*1047 net688
*1048 net689
*1049 net69
*1050 net690
*1051 net691
*1052 net692
*1053 net693
*1054 net694
*1055 net695
*1056 net696
*1057 net697
*1058 net698
*1059 net699
*1060 net7
*1061 net70
*1062 net700
*1063 net701
*1064 net702
*1065 net703
*1066 net704
*1067 net705
*1068 net706
*1069 net707
*1070 net708
*1071 net709
*1072 net71
*1073 net710
*1074 net711
*1075 net712
*1076 net713
*1077 net714
*1078 net715
*1079 net716
*1080 net717
*1081 net718
*1082 net719
*1083 net72
*1084 net720
*1085 net721
*1086 net722
*1087 net723
*1088 net724
*1089 net725
*1090 net726
*1091 net727
*1092 net728
*1093 net729
*1094 net73
*1095 net730
*1096 net731
*1097 net732
*1098 net733
*1099 net734
*1100 net735
*1101 net736
*1102 net737
*1103 net738
*1104 net739
*1105 net74
*1106 net740
*1107 net741
*1108 net742
*1109 net743
*1110 net744
*1111 net745
*1112 net746
*1113 net747
*1114 net748
*1115 net749
*1116 net75
*1117 net750
*1118 net751
*1119 net752
*1120 net753
*1121 net754
*1122 net755
*1123 net756
*1124 net757
*1125 net758
*1126 net759
*1127 net76
*1128 net760
*1129 net761
*1130 net762
*1131 net763
*1132 net764
*1133 net765
*1134 net766
*1135 net767
*1136 net768
*1137 net769
*1138 net77
*1139 net770
*1140 net771
*1141 net772
*1142 net773
*1143 net774
*1144 net775
*1145 net776
*1146 net777
*1147 net778
*1148 net779
*1149 net78
*1150 net780
*1151 net781
*1152 net782
*1153 net783
*1154 net784
*1155 net785
*1156 net786
*1157 net787
*1158 net788
*1159 net789
*1160 net79
*1161 net790
*1162 net791
*1163 net792
*1164 net793
*1165 net794
*1166 net795
*1167 net796
*1168 net797
*1169 net798
*1170 net799
*1171 net8
*1172 net80
*1173 net800
*1174 net801
*1175 net802
*1176 net803
*1177 net804
*1178 net805
*1179 net806
*1180 net807
*1181 net808
*1182 net809
*1183 net81
*1184 net810
*1185 net811
*1186 net812
*1187 net813
*1188 net814
*1189 net815
*1190 net816
*1191 net817
*1192 net818
*1193 net819
*1194 net82
*1195 net820
*1196 net821
*1197 net822
*1198 net823
*1199 net824
*1200 net825
*1201 net826
*1202 net827
*1203 net828
*1204 net829
*1205 net83
*1206 net830
*1207 net831
*1208 net832
*1209 net833
*1210 net834
*1211 net835
*1212 net836
*1213 net837
*1214 net838
*1215 net839
*1216 net84
*1217 net840
*1218 net841
*1219 net842
*1220 net843
*1221 net844
*1222 net845
*1223 net846
*1224 net847
*1225 net848
*1226 net849
*1227 net85
*1228 net850
*1229 net851
*1230 net852
*1231 net853
*1232 net854
*1233 net855
*1234 net856
*1235 net857
*1236 net858
*1237 net859
*1238 net86
*1239 net860
*1240 net861
*1241 net862
*1242 net863
*1243 net864
*1244 net865
*1245 net866
*1246 net867
*1247 net868
*1248 net869
*1249 net87
*1250 net870
*1251 net871
*1252 net872
*1253 net873
*1254 net874
*1255 net875
*1256 net876
*1257 net877
*1258 net878
*1259 net879
*1260 net88
*1261 net880
*1262 net881
*1263 net882
*1264 net883
*1265 net884
*1266 net885
*1267 net886
*1268 net887
*1269 net888
*1270 net889
*1271 net89
*1272 net890
*1273 net891
*1274 net892
*1275 net893
*1276 net894
*1277 net895
*1278 net896
*1279 net897
*1280 net898
*1281 net899
*1282 net9
*1283 net90
*1284 net900
*1285 net901
*1286 net902
*1287 net903
*1288 net904
*1289 net905
*1290 net906
*1291 net907
*1292 net908
*1293 net909
*1294 net91
*1295 net910
*1296 net911
*1297 net912
*1298 net913
*1299 net914
*1300 net915
*1301 net916
*1302 net917
*1303 net918
*1304 net919
*1305 net92
*1306 net920
*1307 net921
*1308 net922
*1309 net923
*1310 net924
*1311 net925
*1312 net926
*1313 net927
*1314 net928
*1315 net929
*1316 net93
*1317 net930
*1318 net931
*1319 net932
*1320 net933
*1321 net934
*1322 net935
*1323 net936
*1324 net937
*1325 net938
*1326 net939
*1327 net94
*1328 net940
*1329 net941
*1330 net942
*1331 net943
*1332 net944
*1333 net945
*1334 net946
*1335 net947
*1336 net948
*1337 net949
*1338 net95
*1339 net950
*1340 net951
*1341 net952
*1342 net953
*1343 net954
*1344 net955
*1345 net956
*1346 net957
*1347 net958
*1348 net959
*1349 net96
*1350 net960
*1351 net961
*1352 net97
*1353 net98
*1354 net99
*1355 ANTENNA_1
*1356 ANTENNA_c100_A2
*1357 ANTENNA_c100_C1
*1358 ANTENNA_c101_A2
*1359 ANTENNA_c102_C_N
*1360 ANTENNA_c102_D_N
*1361 ANTENNA_c102_X
*1362 ANTENNA_c103_A3
*1363 ANTENNA_c103_X
*1364 ANTENNA_c104_A
*1365 ANTENNA_c104_C_N
*1366 ANTENNA_c104_D_N
*1367 ANTENNA_c105_C1
*1368 ANTENNA_c106_D1
*1369 ANTENNA_c107_A1
*1370 ANTENNA_c107_S0
*1371 ANTENNA_c107_S1
*1372 ANTENNA_c108_A1
*1373 ANTENNA_c108_A3
*1374 ANTENNA_c108_X
*1375 ANTENNA_c109_A2
*1376 ANTENNA_c122_C_N
*1377 ANTENNA_c123_A2
*1378 ANTENNA_c124_A1
*1379 ANTENNA_c124_D1
*1380 ANTENNA_c125_D1
*1381 ANTENNA_c127_A0
*1382 ANTENNA_c128_S0
*1383 ANTENNA_c132_B
*1384 ANTENNA_c133_A
*1385 ANTENNA_c133_C
*1386 ANTENNA_c134_B
*1387 ANTENNA_c134_C
*1388 ANTENNA_c134_X
*1389 ANTENNA_c135_A
*1390 ANTENNA_c137_A2
*1391 ANTENNA_c137_S0
*1392 ANTENNA_c137_S1
*1393 ANTENNA_c137_X
*1394 ANTENNA_c138_B
*1395 ANTENNA_c139_B
*1396 ANTENNA_c139_X
*1397 ANTENNA_c140_B
*1398 ANTENNA_c142_A
*1399 ANTENNA_c143_B
*1400 ANTENNA_c143_X
*1401 ANTENNA_c144_A2
*1402 ANTENNA_c144_C1
*1403 ANTENNA_c145_B
*1404 ANTENNA_c146_B1
*1405 ANTENNA_c146_C1
*1406 ANTENNA_c146_D1
*1407 ANTENNA_c146_X
*1408 ANTENNA_c147_B
*1409 ANTENNA_c149_X
*1410 ANTENNA_c150_C
*1411 ANTENNA_c151_A2
*1412 ANTENNA_c152_A0
*1413 ANTENNA_c152_A1
*1414 ANTENNA_c152_A3
*1415 ANTENNA_c152_S0
*1416 ANTENNA_c153_X
*1417 ANTENNA_c154_A
*1418 ANTENNA_c154_C
*1419 ANTENNA_c155_C_N
*1420 ANTENNA_c155_D_N
*1421 ANTENNA_c156_A
*1422 ANTENNA_c157_B
*1423 ANTENNA_c158_A
*1424 ANTENNA_c158_B
*1425 ANTENNA_c160_A2
*1426 ANTENNA_c160_B1
*1427 ANTENNA_c162_A1
*1428 ANTENNA_c162_B1
*1429 ANTENNA_c162_X
*1430 ANTENNA_c163_A3
*1431 ANTENNA_c164_B
*1432 ANTENNA_c164_X
*1433 ANTENNA_c165_S0
*1434 ANTENNA_c165_S1
*1435 ANTENNA_c166_B
*1436 ANTENNA_c166_X
*1437 ANTENNA_c167_A1
*1438 ANTENNA_c167_D1
*1439 ANTENNA_c168_A1
*1440 ANTENNA_c168_A2
*1441 ANTENNA_c168_A3
*1442 ANTENNA_c168_S0
*1443 ANTENNA_c169_A
*1444 ANTENNA_c169_B
*1445 ANTENNA_c170_A0
*1446 ANTENNA_c170_A1
*1447 ANTENNA_c170_S1
*1448 ANTENNA_c171_A1
*1449 ANTENNA_c171_A2
*1450 ANTENNA_c171_X
*1451 ANTENNA_c173_S0
*1452 ANTENNA_c174_A3
*1453 ANTENNA_c175_A2
*1454 ANTENNA_c175_S0
*1455 ANTENNA_c175_X
*1456 ANTENNA_c176_B
*1457 ANTENNA_c177_A
*1458 ANTENNA_c177_B
*1459 ANTENNA_c177_C_N
*1460 ANTENNA_c177_D_N
*1461 ANTENNA_c177_X
*1462 ANTENNA_c178_A2
*1463 ANTENNA_c178_X
*1464 ANTENNA_c179_A2
*1465 ANTENNA_c179_D1
*1466 ANTENNA_c180_B
*1467 ANTENNA_c181_C
*1468 ANTENNA_c181_X
*1469 ANTENNA_c182_A
*1470 ANTENNA_c182_C
*1471 ANTENNA_c183_C
*1472 ANTENNA_c184_A0
*1473 ANTENNA_c184_A2
*1474 ANTENNA_c184_A3
*1475 ANTENNA_c185_B
*1476 ANTENNA_c185_C_N
*1477 ANTENNA_c186_B
*1478 ANTENNA_c187_B
*1479 ANTENNA_c187_X
*1480 ANTENNA_c189_A1
*1481 ANTENNA_c190_A
*1482 ANTENNA_c192_A2
*1483 ANTENNA_c192_S0
*1484 ANTENNA_c192_X
*1485 ANTENNA_c193_A3
*1486 ANTENNA_c194_A2
*1487 ANTENNA_c194_S0
*1488 ANTENNA_c195_A2
*1489 ANTENNA_c195_S1
*1490 ANTENNA_c196_B1
*1491 ANTENNA_c196_D1
*1492 ANTENNA_c196_X
*1493 ANTENNA_c197_S1
*1494 ANTENNA_c198_C
*1495 ANTENNA_c198_X
*1496 ANTENNA_c199_A
*1497 ANTENNA_c199_B
*1498 ANTENNA_c199_C
*1499 ANTENNA_c200_A
*1500 ANTENNA_c200_C
*1501 ANTENNA_c201_C
*1502 ANTENNA_c201_X
*1503 ANTENNA_c202_B
*1504 ANTENNA_c202_C
*1505 ANTENNA_c203_A
*1506 ANTENNA_c203_B
*1507 ANTENNA_c203_C_N
*1508 ANTENNA_c203_D_N
*1509 ANTENNA_c204_C1
*1510 ANTENNA_c205_B
*1511 ANTENNA_c205_C_N
*1512 ANTENNA_c205_D_N
*1513 ANTENNA_c206_A2
*1514 ANTENNA_c206_B1
*1515 ANTENNA_c208_X
*1516 ANTENNA_c209_B
*1517 ANTENNA_c209_C
*1518 ANTENNA_c210_A
*1519 ANTENNA_c210_C
*1520 ANTENNA_c211_A
*1521 ANTENNA_c211_C
*1522 ANTENNA_c212_A
*1523 ANTENNA_c213_C
*1524 ANTENNA_c214_A
*1525 ANTENNA_c215_A0
*1526 ANTENNA_c215_A1
*1527 ANTENNA_c215_A3
*1528 ANTENNA_c216_A1
*1529 ANTENNA_c217_A2
*1530 ANTENNA_c218_S1
*1531 ANTENNA_c220_A
*1532 ANTENNA_c220_X
*1533 ANTENNA_c221_B
*1534 ANTENNA_c222_A2
*1535 ANTENNA_c222_C1
*1536 ANTENNA_c222_D1
*1537 ANTENNA_c223_A
*1538 ANTENNA_c223_B
*1539 ANTENNA_c223_X
*1540 ANTENNA_c224_B1
*1541 ANTENNA_c224_C1
*1542 ANTENNA_c224_D1
*1543 ANTENNA_c225_B
*1544 ANTENNA_c225_C
*1545 ANTENNA_c226_C1
*1546 ANTENNA_c226_D1
*1547 ANTENNA_c227_X
*1548 ANTENNA_c228_B
*1549 ANTENNA_c228_C_N
*1550 ANTENNA_c229_A1
*1551 ANTENNA_c229_B1
*1552 ANTENNA_c230_C
*1553 ANTENNA_c231_C
*1554 ANTENNA_c232_A0
*1555 ANTENNA_c233_CLK_N
*1556 ANTENNA_c233_D
*1557 ANTENNA_c233_SET_B
*1558 ANTENNA_c234_A
*1559 ANTENNA_c235_A
*1560 ANTENNA_c235_X
*1561 ANTENNA_c236_B
*1562 ANTENNA_c236_C
*1563 ANTENNA_c239_C
*1564 ANTENNA_c240_C1
*1565 ANTENNA_c240_D1
*1566 ANTENNA_c241_CLK_N
*1567 ANTENNA_c241_D
*1568 ANTENNA_c241_Q
*1569 ANTENNA_c241_Q_N
*1570 ANTENNA_c241_SCE
*1571 ANTENNA_c264_X
*1572 ANTENNA_c265_A
*1573 ANTENNA_c266_A
*1574 ANTENNA_c266_C
*1575 ANTENNA_c266_X
*1576 ANTENNA_c267_B
*1577 ANTENNA_c268_A
*1578 ANTENNA_c268_B
*1579 ANTENNA_c269_B
*1580 ANTENNA_c272_B
*1581 ANTENNA_c272_X
*1582 ANTENNA_c273_B1
*1583 ANTENNA_c273_D1
*1584 ANTENNA_c274_A
*1585 ANTENNA_c274_C
*1586 ANTENNA_c274_X
*1587 ANTENNA_c275_B
*1588 ANTENNA_c277_A
*1589 ANTENNA_c278_X
*1590 ANTENNA_c279_C
*1591 ANTENNA_c280_A2
*1592 ANTENNA_c280_B1
*1593 ANTENNA_c281_B1
*1594 ANTENNA_c281_C1
*1595 ANTENNA_c281_D1
*1596 ANTENNA_c282_B1
*1597 ANTENNA_c283_A3
*1598 ANTENNA_c283_S0
*1599 ANTENNA_c284_B1
*1600 ANTENNA_c284_D1
*1601 ANTENNA_c284_X
*1602 ANTENNA_c285_A1
*1603 ANTENNA_c285_X
*1604 ANTENNA_c286_B
*1605 ANTENNA_c286_C
*1606 ANTENNA_c286_X
*1607 ANTENNA_c287_B
*1608 ANTENNA_c287_C_N
*1609 ANTENNA_c288_C
*1610 ANTENNA_c288_X
*1611 ANTENNA_c289_B
*1612 ANTENNA_c289_C
*1613 ANTENNA_c290_C
*1614 ANTENNA_c292_A
*1615 ANTENNA_c293_D_N
*1616 ANTENNA_c294_A1
*1617 ANTENNA_c294_A2
*1618 ANTENNA_c294_B1
*1619 ANTENNA_c294_X
*1620 ANTENNA_c295_A1
*1621 ANTENNA_c295_S0
*1622 ANTENNA_c295_S1
*1623 ANTENNA_c296_A
*1624 ANTENNA_c296_C_N
*1625 ANTENNA_c296_D_N
*1626 ANTENNA_c297_C_N
*1627 ANTENNA_c297_D_N
*1628 ANTENNA_c298_CLK
*1629 ANTENNA_c299_A
*1630 ANTENNA_c299_B
*1631 ANTENNA_c299_C_N
*1632 ANTENNA_c299_D_N
*1633 ANTENNA_c299_X
*1634 ANTENNA_c300_A2
*1635 ANTENNA_c300_D1
*1636 ANTENNA_c301_B1
*1637 ANTENNA_c301_D1
*1638 ANTENNA_c303_CLK
*1639 ANTENNA_c303_SCD
*1640 ANTENNA_c304_A
*1641 ANTENNA_c304_C_N
*1642 ANTENNA_c304_X
*1643 ANTENNA_c305_A1
*1644 ANTENNA_c306_B1
*1645 ANTENNA_c306_D1
*1646 ANTENNA_c307_A3
*1647 ANTENNA_c307_S0
*1648 ANTENNA_c307_X
*1649 ANTENNA_c309_A
*1650 ANTENNA_c309_B
*1651 ANTENNA_c309_C
*1652 ANTENNA_c310_B
*1653 ANTENNA_c310_C
*1654 ANTENNA_c311_C_N
*1655 ANTENNA_c313_A2
*1656 ANTENNA_c313_S0
*1657 ANTENNA_c313_S1
*1658 ANTENNA_c314_A1
*1659 ANTENNA_c314_A3
*1660 ANTENNA_c314_S0
*1661 ANTENNA_c315_A1
*1662 ANTENNA_c315_S0
*1663 ANTENNA_c315_S1
*1664 ANTENNA_c316_B
*1665 ANTENNA_c316_X
*1666 ANTENNA_c317_X
*1667 ANTENNA_c318_CLK_N
*1668 ANTENNA_c318_RESET_B
*1669 ANTENNA_c318_SCD
*1670 ANTENNA_c318_SCE
*1671 ANTENNA_c319_A
*1672 ANTENNA_c320_X
*1673 ANTENNA_c322_A1
*1674 ANTENNA_c322_A3
*1675 ANTENNA_c322_S0
*1676 ANTENNA_c322_S1
*1677 ANTENNA_c323_C
*1678 ANTENNA_c324_A
*1679 ANTENNA_c325_A1
*1680 ANTENNA_c325_A2
*1681 ANTENNA_c325_S0
*1682 ANTENNA_c327_S1
*1683 ANTENNA_c328_A1
*1684 ANTENNA_c328_S1
*1685 ANTENNA_c329_A1
*1686 ANTENNA_c329_S1
*1687 ANTENNA_c330_A1
*1688 ANTENNA_c330_A2
*1689 ANTENNA_c330_S0
*1690 ANTENNA_c330_S1
*1691 ANTENNA_c332_A2
*1692 ANTENNA_c332_B1
*1693 ANTENNA_c332_C1
*1694 ANTENNA_c332_D1
*1695 ANTENNA_c334_A
*1696 ANTENNA_c335_A1
*1697 ANTENNA_c335_A2
*1698 ANTENNA_c335_A3
*1699 ANTENNA_c336_B
*1700 ANTENNA_c337_A
*1701 ANTENNA_c338_CLK_N
*1702 ANTENNA_c338_D
*1703 ANTENNA_c338_Q_N
*1704 ANTENNA_c338_RESET_B
*1705 ANTENNA_c339_C_N
*1706 ANTENNA_c340_A1
*1707 ANTENNA_c340_B1
*1708 ANTENNA_c340_C1
*1709 ANTENNA_c340_D1
*1710 ANTENNA_c341_C
*1711 ANTENNA_c342_B
*1712 ANTENNA_c345_CLK
*1713 ANTENNA_c345_SCD
*1714 ANTENNA_c346_S0
*1715 ANTENNA_c350_A3
*1716 ANTENNA_c351_A2
*1717 ANTENNA_c352_D_N
*1718 ANTENNA_c352_X
*1719 ANTENNA_c353_A1
*1720 ANTENNA_c353_A2
*1721 ANTENNA_c353_B1
*1722 ANTENNA_c353_C1
*1723 ANTENNA_c353_D1
*1724 ANTENNA_c353_X
*1725 ANTENNA_c354_CLK
*1726 ANTENNA_c354_RESET_B
*1727 ANTENNA_c354_SCD
*1728 ANTENNA_c355_CLK_N
*1729 ANTENNA_c355_D
*1730 ANTENNA_c355_SCD
*1731 ANTENNA_c355_SET_B
*1732 ANTENNA_c356_A
*1733 ANTENNA_c356_C_N
*1734 ANTENNA_c356_D_N
*1735 ANTENNA_c357_CLK_N
*1736 ANTENNA_c357_RESET_B
*1737 ANTENNA_c357_SCD
*1738 ANTENNA_c358_A
*1739 ANTENNA_c358_D_N
*1740 ANTENNA_c359_A0
*1741 ANTENNA_c359_A1
*1742 ANTENNA_c359_A2
*1743 ANTENNA_c359_A3
*1744 ANTENNA_c359_S0
*1745 ANTENNA_c360_B
*1746 ANTENNA_c360_C_N
*1747 ANTENNA_c361_B
*1748 ANTENNA_c361_C_N
*1749 ANTENNA_c361_D_N
*1750 ANTENNA_c361_X
*1751 ANTENNA_c362_A0
*1752 ANTENNA_c362_A1
*1753 ANTENNA_c362_A2
*1754 ANTENNA_c362_A3
*1755 ANTENNA_c363_A
*1756 ANTENNA_c363_B
*1757 ANTENNA_c363_C_N
*1758 ANTENNA_c364_A0
*1759 ANTENNA_c364_A2
*1760 ANTENNA_c364_X
*1761 ANTENNA_c365_A3
*1762 ANTENNA_c366_A2
*1763 ANTENNA_c366_B1
*1764 ANTENNA_c366_C1
*1765 ANTENNA_c366_D1
*1766 ANTENNA_c367_CLK_N
*1767 ANTENNA_c367_D
*1768 ANTENNA_c367_Q
*1769 ANTENNA_c367_SCD
*1770 ANTENNA_c368_A1
*1771 ANTENNA_c368_A3
*1772 ANTENNA_c368_S0
*1773 ANTENNA_c368_S1
*1774 ANTENNA_c369_A1
*1775 ANTENNA_c369_B1
*1776 ANTENNA_c369_C1
*1777 ANTENNA_c369_D1
*1778 ANTENNA_c369_X
*1779 ANTENNA_c370_A0
*1780 ANTENNA_c370_A1
*1781 ANTENNA_c370_A2
*1782 ANTENNA_c370_S0
*1783 ANTENNA_c371_A1
*1784 ANTENNA_c371_S1
*1785 ANTENNA_c372_A2
*1786 ANTENNA_c372_S0
*1787 ANTENNA_c372_S1
*1788 ANTENNA_c373_A1
*1789 ANTENNA_c373_S0
*1790 ANTENNA_c396_A0
*1791 ANTENNA_c396_A2
*1792 ANTENNA_c396_A3
*1793 ANTENNA_c396_S0
*1794 ANTENNA_c396_S1
*1795 ANTENNA_c397_B
*1796 ANTENNA_c398_B
*1797 ANTENNA_c399_X
*1798 ANTENNA_c400_D1
*1799 ANTENNA_c403_D_N
*1800 ANTENNA_c403_X
*1801 ANTENNA_c404_B
*1802 ANTENNA_c408_A2
*1803 ANTENNA_c409_X
*1804 ANTENNA_c410_B
*1805 ANTENNA_c411_X
*1806 ANTENNA_c412_B
*1807 ANTENNA_c412_C
*1808 ANTENNA_c414_A0
*1809 ANTENNA_c414_S0
*1810 ANTENNA_c415_A
*1811 ANTENNA_c415_B
*1812 ANTENNA_c415_X
*1813 ANTENNA_c416_X
*1814 ANTENNA_c417_D
*1815 ANTENNA_c417_Q
*1816 ANTENNA_c417_Q_N
*1817 ANTENNA_c417_SCD
*1818 ANTENNA_c417_SCE
*1819 ANTENNA_c418_A
*1820 ANTENNA_c418_B
*1821 ANTENNA_c418_C_N
*1822 ANTENNA_c418_D_N
*1823 ANTENNA_c418_X
*1824 ANTENNA_c419_B
*1825 ANTENNA_c419_C
*1826 ANTENNA_c421_CLK_N
*1827 ANTENNA_c421_D
*1828 ANTENNA_c421_SCE
*1829 ANTENNA_c421_SET_B
*1830 ANTENNA_c422_A
*1831 ANTENNA_c423_A2
*1832 ANTENNA_c423_B1
*1833 ANTENNA_c423_D1
*1834 ANTENNA_c423_X
*1835 ANTENNA_c424_CLK_N
*1836 ANTENNA_c424_D
*1837 ANTENNA_c424_Q_N
*1838 ANTENNA_c424_SCD
*1839 ANTENNA_c424_SCE
*1840 ANTENNA_c424_SET_B
*1841 ANTENNA_c425_B
*1842 ANTENNA_c425_C
*1843 ANTENNA_c425_X
*1844 ANTENNA_c426_X
*1845 ANTENNA_c427_CLK
*1846 ANTENNA_c427_RESET_B
*1847 ANTENNA_c427_SCD
*1848 ANTENNA_c428_B
*1849 ANTENNA_c429_CLK
*1850 ANTENNA_c429_Q
*1851 ANTENNA_c429_Q_N
*1852 ANTENNA_c429_RESET_B
*1853 ANTENNA_c429_SCE
*1854 ANTENNA_c429_SET_B
*1855 ANTENNA_c430_C_N
*1856 ANTENNA_c430_D_N
*1857 ANTENNA_c430_X