*SPEF "ieee 1481-1999"
*DESIGN "netlist_1"
*DATE "23:58:22 Saturday August 17, 2024"
*VENDOR "The OpenROAD Project"
*PROGRAM "OpenROAD"
*VERSION "d423155d69de7f683a23f6916ead418a615ad4ad"
*DESIGN_FLOW "NAME_SCOPE LOCAL" "PIN_CAP NONE"
*DIVIDER /
*DELIMITER :
*BUS_DELIMITER []
*T_UNIT 1 NS
*C_UNIT 1 PF
*R_UNIT 1 OHM
*L_UNIT 1 HENRY

*NAME_MAP
*3 clk
*4 in0
*5 in1
*6 in10
*7 in11
*8 in12
*9 in13
*10 in14
*11 in15
*12 in16
*13 in17
*14 in18
*15 in19
*16 in2
*17 in20
*18 in21
*19 in22
*20 in23
*21 in24
*22 in25
*23 in26
*24 in27
*25 in28
*26 in29
*27 in3
*28 in30
*29 in31
*30 in32
*31 in33
*32 in34
*33 in35
*34 in36
*35 in37
*36 in38
*37 in39
*38 in4
*39 in40
*40 in41
*41 in42
*42 in43
*43 in44
*44 in45
*45 in46
*46 in47
*47 in48
*48 in49
*49 in5
*50 in50
*51 in51
*52 in52
*53 in53
*54 in54
*55 in55
*56 in56
*57 in57
*58 in58
*59 in59
*60 in6
*61 in60
*62 in61
*63 in7
*64 in8
*65 in9
*66 out0
*67 out1
*68 out10
*69 out11
*70 out12
*71 out13
*72 out14
*73 out15
*74 out16
*75 out17
*76 out18
*77 out19
*78 out2
*79 out20
*80 out21
*81 out22
*82 out23
*83 out24
*84 out25
*85 out26
*86 out27
*87 out28
*88 out29
*89 out3
*90 out30
*91 out31
*92 out32
*93 out33
*94 out34
*95 out35
*96 out36
*97 out37
*98 out38
*99 out39
*100 out4
*101 out40
*102 out41
*103 out42
*104 out43
*105 out44
*106 out45
*107 out46
*108 out47
*109 out48
*110 out49
*111 out5
*112 out50
*113 out51
*114 out52
*115 out53
*116 out54
*117 out55
*118 out56
*119 out57
*120 out58
*121 out59
*122 out6
*123 out60
*124 out61
*125 out7
*126 out8
*127 out9
*128 rst
*129 clknet_0_clk
*130 clknet_0_net196
*131 clknet_0_net198
*132 clknet_0_net199
*133 clknet_0_net200
*134 clknet_0_net292
*135 clknet_0_net293
*136 clknet_0_net294
*137 clknet_0_net298
*138 clknet_0_net301
*139 clknet_0_net306
*140 clknet_0_net307
*141 clknet_0_net316
*142 clknet_0_net422
*143 clknet_0_net424
*144 clknet_0_net426
*145 clknet_0_net493
*146 clknet_0_net494
*147 clknet_0_net495
*148 clknet_0_net539
*149 clknet_0_net540
*150 clknet_0_net553
*151 clknet_0_net652
*152 clknet_0_net653
*153 clknet_0_net654
*154 clknet_0_net655
*155 clknet_0_net656
*156 clknet_0_net657
*157 clknet_0_net658
*158 clknet_0_net659
*159 clknet_0_net660
*160 clknet_0_net661
*161 clknet_0_net669
*162 clknet_0_net707
*163 clknet_0_net708
*164 clknet_0_net725
*165 clknet_0_net726
*166 clknet_0_net803
*167 clknet_0_net805
*168 clknet_0_net808
*169 clknet_0_net813
*170 clknet_0_net819
*171 clknet_1_0__leaf_net196
*172 clknet_1_0__leaf_net198
*173 clknet_1_0__leaf_net199
*174 clknet_1_0__leaf_net200
*175 clknet_1_0__leaf_net292
*176 clknet_1_0__leaf_net293
*177 clknet_1_0__leaf_net294
*178 clknet_1_0__leaf_net298
*179 clknet_1_0__leaf_net301
*180 clknet_1_0__leaf_net306
*181 clknet_1_0__leaf_net307
*182 clknet_1_0__leaf_net316
*183 clknet_1_0__leaf_net422
*184 clknet_1_0__leaf_net424
*185 clknet_1_0__leaf_net426
*186 clknet_1_0__leaf_net493
*187 clknet_1_0__leaf_net494
*188 clknet_1_0__leaf_net495
*189 clknet_1_0__leaf_net539
*190 clknet_1_0__leaf_net540
*191 clknet_1_0__leaf_net553
*192 clknet_1_0__leaf_net652
*193 clknet_1_0__leaf_net653
*194 clknet_1_0__leaf_net654
*195 clknet_1_0__leaf_net655
*196 clknet_1_0__leaf_net656
*197 clknet_1_0__leaf_net657
*198 clknet_1_0__leaf_net658
*199 clknet_1_0__leaf_net659
*200 clknet_1_0__leaf_net660
*201 clknet_1_0__leaf_net661
*202 clknet_1_0__leaf_net669
*203 clknet_1_0__leaf_net707
*204 clknet_1_0__leaf_net708
*205 clknet_1_0__leaf_net725
*206 clknet_1_0__leaf_net726
*207 clknet_1_0__leaf_net803
*208 clknet_1_0__leaf_net805
*209 clknet_1_0__leaf_net808
*210 clknet_1_0__leaf_net813
*211 clknet_1_0__leaf_net819
*212 clknet_1_1__leaf_net196
*213 clknet_1_1__leaf_net198
*214 clknet_1_1__leaf_net199
*215 clknet_1_1__leaf_net200
*216 clknet_1_1__leaf_net292
*217 clknet_1_1__leaf_net293
*218 clknet_1_1__leaf_net294
*219 clknet_1_1__leaf_net298
*220 clknet_1_1__leaf_net301
*221 clknet_1_1__leaf_net306
*222 clknet_1_1__leaf_net307
*223 clknet_1_1__leaf_net316
*224 clknet_1_1__leaf_net422
*225 clknet_1_1__leaf_net424
*226 clknet_1_1__leaf_net426
*227 clknet_1_1__leaf_net493
*228 clknet_1_1__leaf_net494
*229 clknet_1_1__leaf_net495
*230 clknet_1_1__leaf_net539
*231 clknet_1_1__leaf_net540
*232 clknet_1_1__leaf_net553
*233 clknet_1_1__leaf_net652
*234 clknet_1_1__leaf_net653
*235 clknet_1_1__leaf_net654
*236 clknet_1_1__leaf_net655
*237 clknet_1_1__leaf_net656
*238 clknet_1_1__leaf_net657
*239 clknet_1_1__leaf_net658
*240 clknet_1_1__leaf_net659
*241 clknet_1_1__leaf_net660
*242 clknet_1_1__leaf_net661
*243 clknet_1_1__leaf_net669
*244 clknet_1_1__leaf_net707
*245 clknet_1_1__leaf_net708
*246 clknet_1_1__leaf_net725
*247 clknet_1_1__leaf_net726
*248 clknet_1_1__leaf_net803
*249 clknet_1_1__leaf_net805
*250 clknet_1_1__leaf_net808
*251 clknet_1_1__leaf_net813
*252 clknet_1_1__leaf_net819
*253 clknet_2_0__leaf_clk
*254 clknet_2_1__leaf_clk
*255 clknet_2_2__leaf_clk
*256 clknet_2_3__leaf_clk
*257 clknet_leaf_0_clk
*258 clknet_leaf_10_clk
*259 clknet_leaf_11_clk
*260 clknet_leaf_12_clk
*261 clknet_leaf_13_clk
*262 clknet_leaf_14_clk
*263 clknet_leaf_15_clk
*264 clknet_leaf_16_clk
*265 clknet_leaf_17_clk
*266 clknet_leaf_18_clk
*267 clknet_leaf_19_clk
*268 clknet_leaf_1_clk
*269 clknet_leaf_20_clk
*270 clknet_leaf_21_clk
*271 clknet_leaf_22_clk
*272 clknet_leaf_23_clk
*273 clknet_leaf_24_clk
*274 clknet_leaf_25_clk
*275 clknet_leaf_26_clk
*276 clknet_leaf_27_clk
*277 clknet_leaf_28_clk
*278 clknet_leaf_29_clk
*279 clknet_leaf_2_clk
*280 clknet_leaf_30_clk
*281 clknet_leaf_31_clk
*282 clknet_leaf_32_clk
*283 clknet_leaf_3_clk
*284 clknet_leaf_4_clk
*285 clknet_leaf_5_clk
*286 clknet_leaf_6_clk
*287 clknet_leaf_7_clk
*288 clknet_leaf_8_clk
*289 clknet_leaf_9_clk
*290 net0
*291 net1
*292 net10
*293 net100
*294 net101
*295 net102
*296 net103
*297 net104
*298 net105
*299 net106
*300 net107
*301 net108
*302 net109
*303 net11
*304 net110
*305 net111
*306 net112
*307 net113
*308 net114
*309 net115
*310 net116
*311 net117
*312 net118
*313 net119
*314 net12
*315 net120
*316 net121
*317 net122
*318 net123
*319 net124
*320 net125
*321 net126
*322 net127
*323 net128
*324 net129
*325 net13
*326 net130
*327 net131
*328 net132
*329 net133
*330 net134
*331 net135
*332 net136
*333 net137
*334 net138
*335 net139
*336 net14
*337 net140
*338 net141
*339 net142
*340 net143
*341 net144
*342 net145
*343 net146
*344 net147
*345 net148
*346 net149
*347 net15
*348 net150
*349 net151
*350 net152
*351 net153
*352 net154
*353 net155
*354 net156
*355 net157
*356 net158
*357 net159
*358 net16
*359 net160
*360 net161
*361 net162
*362 net163
*363 net164
*364 net165
*365 net166
*366 net167
*367 net168
*368 net169
*369 net17
*370 net170
*371 net171
*372 net172
*373 net173
*374 net174
*375 net175
*376 net176
*377 net177
*378 net178
*379 net179
*380 net18
*381 net180
*382 net181
*383 net182
*384 net183
*385 net184
*386 net185
*387 net186
*388 net187
*389 net188
*390 net189
*391 net19
*392 net190
*393 net191
*394 net192
*395 net193
*396 net194
*397 net195
*398 net196
*399 net197
*400 net198
*401 net199
*402 net2
*403 net20
*404 net200
*405 net201
*406 net202
*407 net203
*408 net204
*409 net205
*410 net206
*411 net207
*412 net208
*413 net209
*414 net21
*415 net210
*416 net211
*417 net212
*418 net213
*419 net214
*420 net215
*421 net216
*422 net217
*423 net218
*424 net219
*425 net22
*426 net220
*427 net221
*428 net222
*429 net223
*430 net224
*431 net225
*432 net226
*433 net227
*434 net228
*435 net229
*436 net23
*437 net230
*438 net231
*439 net232
*440 net233
*441 net234
*442 net235
*443 net236
*444 net237
*445 net238
*446 net239
*447 net24
*448 net240
*449 net241
*450 net242
*451 net243
*452 net244
*453 net245
*454 net246
*455 net247
*456 net248
*457 net249
*458 net25
*459 net250
*460 net251
*461 net252
*462 net253
*463 net254
*464 net255
*465 net256
*466 net257
*467 net258
*468 net259
*469 net26
*470 net260
*471 net261
*472 net262
*473 net263
*474 net264
*475 net265
*476 net266
*477 net267
*478 net268
*479 net269
*480 net27
*481 net270
*482 net271
*483 net272
*484 net273
*485 net274
*486 net275
*487 net276
*488 net277
*489 net278
*490 net279
*491 net28
*492 net280
*493 net281
*494 net282
*495 net283
*496 net284
*497 net285
*498 net286
*499 net287
*500 net288
*501 net289
*502 net29
*503 net290
*504 net291
*505 net292
*506 net293
*507 net294
*508 net295
*509 net296
*510 net297
*511 net298
*512 net299
*513 net3
*514 net30
*515 net300
*516 net301
*517 net302
*518 net303
*519 net304
*520 net305
*521 net306
*522 net307
*523 net308
*524 net309
*525 net31
*526 net310
*527 net311
*528 net312
*529 net313
*530 net314
*531 net315
*532 net316
*533 net317
*534 net318
*535 net319
*536 net32
*537 net320
*538 net321
*539 net322
*540 net323
*541 net324
*542 net325
*543 net326
*544 net327
*545 net328
*546 net329
*547 net33
*548 net330
*549 net331
*550 net332
*551 net333
*552 net334
*553 net335
*554 net336
*555 net337
*556 net338
*557 net339
*558 net34
*559 net340
*560 net341
*561 net342
*562 net343
*563 net344
*564 net345
*565 net346
*566 net347
*567 net348
*568 net349
*569 net35
*570 net350
*571 net351
*572 net352
*573 net353
*574 net354
*575 net355
*576 net356
*577 net357
*578 net358
*579 net359
*580 net36
*581 net360
*582 net361
*583 net362
*584 net363
*585 net364
*586 net365
*587 net366
*588 net367
*589 net368
*590 net369
*591 net37
*592 net370
*593 net371
*594 net372
*595 net373
*596 net374
*597 net375
*598 net376
*599 net377
*600 net378
*601 net379
*602 net38
*603 net380
*604 net381
*605 net382
*606 net383
*607 net384
*608 net385
*609 net386
*610 net387
*611 net388
*612 net389
*613 net39
*614 net390
*615 net391
*616 net392
*617 net393
*618 net394
*619 net395
*620 net396
*621 net397
*622 net398
*623 net399
*624 net4
*625 net40
*626 net400
*627 net401
*628 net402
*629 net403
*630 net404
*631 net405
*632 net406
*633 net407
*634 net408
*635 net409
*636 net41
*637 net410
*638 net411
*639 net412
*640 net413
*641 net414
*642 net415
*643 net416
*644 net417
*645 net418
*646 net419
*647 net42
*648 net420
*649 net421
*650 net422
*651 net423
*652 net424
*653 net425
*654 net426
*655 net427
*656 net428
*657 net429
*658 net43
*659 net430
*660 net431
*661 net432
*662 net433
*663 net434
*664 net435
*665 net436
*666 net437
*667 net438
*668 net439
*669 net44
*670 net440
*671 net441
*672 net442
*673 net443
*674 net444
*675 net445
*676 net446
*677 net447
*678 net448
*679 net449
*680 net45
*681 net450
*682 net451
*683 net452
*684 net453
*685 net454
*686 net455
*687 net456
*688 net457
*689 net458
*690 net459
*691 net46
*692 net460
*693 net461
*694 net462
*695 net463
*696 net464
*697 net465
*698 net466
*699 net467
*700 net468
*701 net469
*702 net47
*703 net470
*704 net471
*705 net472
*706 net473
*707 net474
*708 net475
*709 net476
*710 net477
*711 net478
*712 net479
*713 net48
*714 net480
*715 net481
*716 net482
*717 net483
*718 net484
*719 net485
*720 net486
*721 net487
*722 net488
*723 net489
*724 net49
*725 net490
*726 net491
*727 net492
*728 net493
*729 net494
*730 net495
*731 net496
*732 net497
*733 net498
*734 net499
*735 net5
*736 net50
*737 net500
*738 net501
*739 net502
*740 net503
*741 net504
*742 net505
*743 net506
*744 net507
*745 net508
*746 net509
*747 net51
*748 net510
*749 net511
*750 net512
*751 net513
*752 net514
*753 net515
*754 net516
*755 net517
*756 net518
*757 net519
*758 net52
*759 net520
*760 net521
*761 net522
*762 net523
*763 net524
*764 net525
*765 net526
*766 net527
*767 net528
*768 net529
*769 net53
*770 net530
*771 net531
*772 net532
*773 net533
*774 net534
*775 net535
*776 net536
*777 net537
*778 net538
*779 net539
*780 net54
*781 net540
*782 net541
*783 net542
*784 net543
*785 net544
*786 net545
*787 net546
*788 net547
*789 net548
*790 net549
*791 net55
*792 net550
*793 net551
*794 net552
*795 net553
*796 net554
*797 net555
*798 net556
*799 net557
*800 net558
*801 net559
*802 net56
*803 net560
*804 net561
*805 net562
*806 net563
*807 net564
*808 net565
*809 net566
*810 net567
*811 net568
*812 net569
*813 net57
*814 net570
*815 net571
*816 net572
*817 net573
*818 net574
*819 net575
*820 net576
*821 net577
*822 net578
*823 net579
*824 net58
*825 net580
*826 net581
*827 net582
*828 net583
*829 net584
*830 net585
*831 net586
*832 net587
*833 net588
*834 net589
*835 net59
*836 net590
*837 net591
*838 net592
*839 net593
*840 net594
*841 net595
*842 net596
*843 net597
*844 net598
*845 net599
*846 net6
*847 net60
*848 net600
*849 net601
*850 net602
*851 net603
*852 net604
*853 net605
*854 net606
*855 net607
*856 net608
*857 net609
*858 net61
*859 net610
*860 net611
*861 net612
*862 net613
*863 net614
*864 net615
*865 net616
*866 net617
*867 net618
*868 net619
*869 net62
*870 net620
*871 net621
*872 net622
*873 net623
*874 net624
*875 net625
*876 net626
*877 net627
*878 net628
*879 net629
*880 net63
*881 net630
*882 net631
*883 net632
*884 net633
*885 net634
*886 net635
*887 net636
*888 net637
*889 net638
*890 net639
*891 net64
*892 net640
*893 net641
*894 net642
*895 net643
*896 net644
*897 net645
*898 net646
*899 net647
*900 net648
*901 net649
*902 net65
*903 net650
*904 net651
*905 net652
*906 net653
*907 net654
*908 net655
*909 net656
*910 net657
*911 net658
*912 net659
*913 net66
*914 net660
*915 net661
*916 net662
*917 net663
*918 net664
*919 net665
*920 net666
*921 net667
*922 net668
*923 net669
*924 net67
*925 net670
*926 net671
*927 net672
*928 net673
*929 net674
*930 net675
*931 net676
*932 net677
*933 net678
*934 net679
*935 net68
*936 net680
*937 net681
*938 net682
*939 net683
*940 net684
*941 net685
*942 net686
*943 net687
*944 net688
*945 net689
*946 net69
*947 net690
*948 net691
*949 net692
*950 net693
*951 net694
*952 net695
*953 net696
*954 net697
*955 net698
*956 net699
*957 net7
*958 net70
*959 net700
*960 net701
*961 net702
*962 net703
*963 net704
*964 net705
*965 net706
*966 net707
*967 net708
*968 net709
*969 net71
*970 net710
*971 net711
*972 net712
*973 net713
*974 net714
*975 net715
*976 net716
*977 net717
*978 net718
*979 net719
*980 net72
*981 net720
*982 net721
*983 net722
*984 net723
*985 net724
*986 net725
*987 net726
*988 net727
*989 net728
*990 net729
*991 net73
*992 net730
*993 net731
*994 net732
*995 net733
*996 net734
*997 net735
*998 net736
*999 net737
*1000 net738
*1001 net739
*1002 net74
*1003 net740
*1004 net741
*1005 net742
*1006 net743
*1007 net744
*1008 net745
*1009 net746
*1010 net747
*1011 net748
*1012 net749
*1013 net75
*1014 net750
*1015 net751
*1016 net752
*1017 net753
*1018 net754
*1019 net755
*1020 net756
*1021 net757
*1022 net758
*1023 net759
*1024 net76
*1025 net760
*1026 net761
*1027 net762
*1028 net763
*1029 net764
*1030 net765
*1031 net766
*1032 net767
*1033 net768
*1034 net769
*1035 net77
*1036 net770
*1037 net771
*1038 net772
*1039 net773
*1040 net774
*1041 net775
*1042 net776
*1043 net777
*1044 net778
*1045 net779
*1046 net78
*1047 net780
*1048 net781
*1049 net782
*1050 net783
*1051 net784
*1052 net785
*1053 net786
*1054 net787
*1055 net788
*1056 net789
*1057 net79
*1058 net790
*1059 net791
*1060 net792
*1061 net793
*1062 net794
*1063 net795
*1064 net796
*1065 net797
*1066 net798
*1067 net799
*1068 net8
*1069 net80
*1070 net800
*1071 net801
*1072 net802
*1073 net803
*1074 net804
*1075 net805
*1076 net806
*1077 net807
*1078 net808
*1079 net809
*1080 net81
*1081 net810
*1082 net811
*1083 net812
*1084 net813
*1085 net814
*1086 net815
*1087 net816
*1088 net817
*1089 net818
*1090 net819
*1091 net82
*1092 net820
*1093 net821
*1094 net822
*1095 net823
*1096 net824
*1097 net825
*1098 net826
*1099 net827
*1100 net828
*1101 net829
*1102 net83
*1103 net830
*1104 net831
*1105 net832
*1106 net833
*1107 net834
*1108 net835
*1109 net836
*1110 net837
*1111 net838
*1112 net839
*1113 net84
*1114 net840
*1115 net841
*1116 net842
*1117 net843
*1118 net844
*1119 net845
*1120 net846
*1121 net847
*1122 net848
*1123 net849
*1124 net85
*1125 net850
*1126 net851
*1127 net852
*1128 net853
*1129 net854
*1130 net855
*1131 net856
*1132 net857
*1133 net858
*1134 net859
*1135 net86
*1136 net860
*1137 net861
*1138 net862
*1139 net863
*1140 net864
*1141 net865
*1142 net866
*1143 net867
*1144 net868
*1145 net869
*1146 net87
*1147 net870
*1148 net871
*1149 net872
*1150 net873
*1151 net874
*1152 net875
*1153 net876
*1154 net877
*1155 net878
*1156 net879
*1157 net88
*1158 net880
*1159 net881
*1160 net882
*1161 net883
*1162 net884
*1163 net885
*1164 net886
*1165 net887
*1166 net888
*1167 net889
*1168 net89
*1169 net890
*1170 net891
*1171 net892
*1172 net893
*1173 net894
*1174 net895
*1175 net896
*1176 net897
*1177 net898
*1178 net899
*1179 net9
*1180 net90
*1181 net900
*1182 net901
*1183 net902
*1184 net903
*1185 net904
*1186 net905
*1187 net906
*1188 net907
*1189 net908
*1190 net909
*1191 net91
*1192 net910
*1193 net911
*1194 net912
*1195 net913
*1196 net914
*1197 net915
*1198 net916
*1199 net917
*1200 net918
*1201 net919
*1202 net92
*1203 net920
*1204 net921
*1205 net922
*1206 net923
*1207 net924
*1208 net925
*1209 net926
*1210 net927
*1211 net928
*1212 net929
*1213 net93
*1214 net930
*1215 net931
*1216 net932
*1217 net933
*1218 net934
*1219 net935
*1220 net936
*1221 net937
*1222 net938
*1223 net939
*1224 net94
*1225 net940
*1226 net941
*1227 net942
*1228 net943
*1229 net944
*1230 net945
*1231 net946
*1232 net947
*1233 net948
*1234 net949
*1235 net95
*1236 net950
*1237 net951
*1238 net952
*1239 net953
*1240 net954
*1241 net955
*1242 net96
*1243 net97
*1244 net98
*1245 net99
*1246 ANTENNA_c223_X
*1247 ANTENNA_c224_RESET_B
*1248 ANTENNA_c227_RESET_B
*1249 ANTENNA_c250_D
*1250 ANTENNA_c273_A
*1251 ANTENNA_c281_Q_N
*1252 ANTENNA_c288_S0
*1253 ANTENNA_c294_A
*1254 ANTENNA_c294_B
*1255 ANTENNA_c295_B
*1256 ANTENNA_c297_X
*1257 ANTENNA_c299_A
*1258 ANTENNA_c306_D1
*1259 ANTENNA_c330_Q
*1260 ANTENNA_c333_SCE
*1261 ANTENNA_c387_Q
*1262 ANTENNA_c388_RESET_B
*1263 ANTENNA_c390_Q_N
*1264 ANTENNA_c390_SCE
*1265 ANTENNA_c391_B
*1266 ANTENNA_c392_B1
*1267 ANTENNA_c393_SCD
*1268 ANTENNA_c394_D1
*1269 ANTENNA_c395_SCE
*1270 ANTENNA_c398_S0
*1271 ANTENNA_c398_S1
*1272 ANTENNA_c414_D1
*1273 ANTENNA_c460_X
*1274 ANTENNA_c461_A2
*1275 ANTENNA_c510_X
*1276 ANTENNA_c511_SET_B
*1277 ANTENNA_c512_SET_B
*1278 ANTENNA_c514_SET_B
*1279 ANTENNA_c515_SCD
*1280 ANTENNA_c518_SET_B
*1281 ANTENNA_c519_A3
*1282 ANTENNA_c523_RESET_B
*1283 ANTENNA_c529_DE
*1284 ANTENNA_c545_S1
*1285 ANTENNA_c567_D
*1286 ANTENNA_c568_SET_B
*1287 ANTENNA_c573_X
*1288 ANTENNA_c574_D
*1289 ANTENNA_c580_S1
*1290 ANTENNA_c585_SET_B
*1291 ANTENNA_c586_SET_B
*1292 ANTENNA_c587_X
*1293 ANTENNA_c595_D
*1294 ANTENNA_c639_A
*1295 ANTENNA_c654_B
*1296 ANTENNA_c663_D
*1297 ANTENNA_clkbuf_0_clk_A
*1298 ANTENNA_clkbuf_0_clk_X
*1299 ANTENNA_clkbuf_2_0__f_clk_A
*1300 ANTENNA_clkbuf_2_0__f_clk_X
*1301 ANTENNA_clkbuf_2_1__f_clk_A
*1302 ANTENNA_clkbuf_2_1__f_clk_X
*1303 ANTENNA_clkbuf_2_2__f_clk_A
*1304 ANTENNA_clkbuf_2_2__f_clk_X
*1305 ANTENNA_clkbuf_2_3__f_clk_A
*1306 ANTENNA_clkbuf_2_3__f_clk_X
*1307 ANTENNA_clkbuf_leaf_0_clk_A
*1308 ANTENNA_clkbuf_leaf_10_clk_A
*1309 ANTENNA_clkbuf_leaf_11_clk_A
*1310 ANTENNA_clkbuf_leaf_12_clk_A
*1311 ANTENNA_clkbuf_leaf_13_clk_A
*1312 ANTENNA_clkbuf_leaf_14_clk_A
*1313 ANTENNA_clkbuf_leaf_15_clk_A
*1314 ANTENNA_clkbuf_leaf_16_clk_A
*1315 ANTENNA_clkbuf_leaf_17_clk_A
*1316 ANTENNA_clkbuf_leaf_18_clk_A
*1317 ANTENNA_clkbuf_leaf_19_clk_A
*1318 ANTENNA_clkbuf_leaf_1_clk_A
*1319 ANTENNA_clkbuf_leaf_20_clk_A
*1320 ANTENNA_clkbuf_leaf_21_clk_A
*1321 ANTENNA_clkbuf_leaf_22_clk_A
*1322 ANTENNA_clkbuf_leaf_23_clk_A
*1323 ANTENNA_clkbuf_leaf_24_clk_A
*1324 ANTENNA_clkbuf_leaf_25_clk_A
*1325 ANTENNA_clkbuf_leaf_26_clk_A
*1326 ANTENNA_clkbuf_leaf_27_clk_A
*1327 ANTENNA_clkbuf_leaf_28_clk_A
*1328 ANTENNA_clkbuf_leaf_29_clk_A
*1329 ANTENNA_clkbuf_leaf_2_clk_A
*1330 ANTENNA_clkbuf_leaf_30_clk_A
*1331 ANTENNA_clkbuf_leaf_31_clk_A
*1332 ANTENNA_clkbuf_leaf_32_clk_A
*1333 ANTENNA_clkbuf_leaf_3_clk_A
*1334 ANTENNA_clkbuf_leaf_4_clk_A
*1335 ANTENNA_clkbuf_leaf_5_clk_A
*1336 ANTENNA_clkbuf_leaf_6_clk_A
*1337 ANTENNA_clkbuf_leaf_7_clk_A
*1338 ANTENNA_clkbuf_leaf_8_clk_A
*1339 ANTENNA_clkbuf_leaf_9_clk_A
*1340 ANTENNA_hold13_A
*1341 ANTENNA_hold33_A
*1342 ANTENNA_hold79_A
*1343 ANTENNA_input10_A
*1344 ANTENNA_input11_A
*1345 ANTENNA_input12_A
*1346 ANTENNA_input13_A
*1347 ANTENNA_input14_A
*1348 ANTENNA_input15_A
*1349 ANTENNA_input16_A
*1350 ANTENNA_input17_A
*1351 ANTENNA_input18_A
*1352 ANTENNA_input19_A
*1353 ANTENNA_input1_A
*1354 ANTENNA_input20_A
*1355 ANTENNA_input21_A
*1356 ANTENNA_input22_A
*1357 ANTENNA_input23_A
*1358 ANTENNA_input24_A
*1359 ANTENNA_input25_A
*1360 ANTENNA_input26_A
*1361 ANTENNA_input27_A
*1362 ANTENNA_input28_A
*1363 ANTENNA_input29_A
*1364 ANTENNA_input2_A
*1365 ANTENNA_input30_A
*1366 ANTENNA_input31_A
*1367 ANTENNA_input32_A
*1368 ANTENNA_input33_A
*1369 ANTENNA_input34_A
*1370 ANTENNA_input35_A
*1371 ANTENNA_input36_A
*1372 ANTENNA_input37_A
*1373 ANTENNA_input38_A
*1374 ANTENNA_input39_A
*1375 ANTENNA_input3_A
*1376 ANTENNA_input40_A
*1377 ANTENNA_input41_A
*1378 ANTENNA_input42_A
*1379 ANTENNA_input43_A
*1380 ANTENNA_input44_A
*1381 ANTENNA_input45_A
*1382 ANTENNA_input46_A
*1383 ANTENNA_input47_A
*1384 ANTENNA_input49_A
*1385 ANTENNA_input4_A
*1386 ANTENNA_input50_A
*1387 ANTENNA_input51_A
*1388 ANTENNA_input52_A
*1389 ANTENNA_input53_A
*1390 ANTENNA_input54_A
*1391 ANTENNA_input55_A
*1392 ANTENNA_input56_A
*1393 ANTENNA_input57_A
*1394 ANTENNA_input58_A
*1395 ANTENNA_input59_A
*1396 ANTENNA_input5_A
*1397 ANTENNA_input60_A
*1398 ANTENNA_input61_A
*1399 ANTENNA_input6_A
*1400 ANTENNA_input7_A
*1401 ANTENNA_input8_A
*1402 ANTENNA_input9_A
*1403 ANTENNA_merge741_D
*1404 ANTENNA_merge746_DE
*1405 ANTENNA_output66_A
*1406 ANTENNA_output74_A
*1407 ANTENNA_output79_A
*1408 ANTENNA_output82_A
*1409 ANTENNA_output86_A
*1410 ANTENNA_s766_Q
*1411 FILLER_0_0_109
*1412 FILLER_0_0_113
*1413 FILLER_0_0_119
*1414 FILLER_0_0_125
*1415 FILLER_0_0_132
*1416 FILLER_0_0_139
*1417 FILLER_0_0_146
*1418 FILLER_0_0_15
*1419 FILLER_0_0_153
*1420 FILLER_0_0_160
*1421 FILLER_0_0_169
*1422 FILLER_0_0_181
*1423 FILLER_0_0_193
*1424 FILLER_0_0_197
*1425 FILLER_0_0_209
*1426 FILLER_0_0_221
*1427 FILLER_0_0_225
*1428 FILLER_0_0_237
*1429 FILLER_0_0_249
*1430 FILLER_0_0_253
*1431 FILLER_0_0_265
*1432 FILLER_0_0_27
*1433 FILLER_0_0_277
*1434 FILLER_0_0_281
*1435 FILLER_0_0_29
*1436 FILLER_0_0_293
*1437 FILLER_0_0_3
*1438 FILLER_0_0_305
*1439 FILLER_0_0_309
*1440 FILLER_0_0_321
*1441 FILLER_0_0_329
*1442 FILLER_0_0_337
*1443 FILLER_0_0_345
*1444 FILLER_0_0_350
*1445 FILLER_0_0_357
*1446 FILLER_0_0_363
*1447 FILLER_0_0_365
*1448 FILLER_0_0_377
*1449 FILLER_0_0_385
*1450 FILLER_0_0_391
*1451 FILLER_0_0_393
*1452 FILLER_0_0_41
*1453 FILLER_0_0_417
*1454 FILLER_0_0_421
*1455 FILLER_0_0_427
*1456 FILLER_0_0_434
*1457 FILLER_0_0_442
*1458 FILLER_0_0_449
*1459 FILLER_0_0_461
*1460 FILLER_0_0_473
*1461 FILLER_0_0_477
*1462 FILLER_0_0_489
*1463 FILLER_0_0_501
*1464 FILLER_0_0_505
*1465 FILLER_0_0_517
*1466 FILLER_0_0_529
*1467 FILLER_0_0_53
*1468 FILLER_0_0_533
*1469 FILLER_0_0_545
*1470 FILLER_0_0_557
*1471 FILLER_0_0_561
*1472 FILLER_0_0_57
*1473 FILLER_0_0_573
*1474 FILLER_0_0_585
*1475 FILLER_0_0_589
*1476 FILLER_0_0_601
*1477 FILLER_0_0_613
*1478 FILLER_0_0_617
*1479 FILLER_0_0_69
*1480 FILLER_0_0_81
*1481 FILLER_0_0_85
*1482 FILLER_0_0_97
*1483 FILLER_0_100_109
*1484 FILLER_0_100_121
*1485 FILLER_0_100_133
*1486 FILLER_0_100_139
*1487 FILLER_0_100_141
*1488 FILLER_0_100_15
*1489 FILLER_0_100_153
*1490 FILLER_0_100_165
*1491 FILLER_0_100_177
*1492 FILLER_0_100_189
*1493 FILLER_0_100_195
*1494 FILLER_0_100_197
*1495 FILLER_0_100_209
*1496 FILLER_0_100_221
*1497 FILLER_0_100_233
*1498 FILLER_0_100_245
*1499 FILLER_0_100_251
*1500 FILLER_0_100_253
*1501 FILLER_0_100_265
*1502 FILLER_0_100_27
*1503 FILLER_0_100_277
*1504 FILLER_0_100_289
*1505 FILLER_0_100_29
*1506 FILLER_0_100_3
*1507 FILLER_0_100_301
*1508 FILLER_0_100_307
*1509 FILLER_0_100_309
*1510 FILLER_0_100_321
*1511 FILLER_0_100_333
*1512 FILLER_0_100_345
*1513 FILLER_0_100_357
*1514 FILLER_0_100_363
*1515 FILLER_0_100_365
*1516 FILLER_0_100_377
*1517 FILLER_0_100_389
*1518 FILLER_0_100_401
*1519 FILLER_0_100_41
*1520 FILLER_0_100_413
*1521 FILLER_0_100_419
*1522 FILLER_0_100_421
*1523 FILLER_0_100_433
*1524 FILLER_0_100_445
*1525 FILLER_0_100_457
*1526 FILLER_0_100_469
*1527 FILLER_0_100_475
*1528 FILLER_0_100_477
*1529 FILLER_0_100_489
*1530 FILLER_0_100_501
*1531 FILLER_0_100_513
*1532 FILLER_0_100_525
*1533 FILLER_0_100_53
*1534 FILLER_0_100_531
*1535 FILLER_0_100_533
*1536 FILLER_0_100_545
*1537 FILLER_0_100_557
*1538 FILLER_0_100_569
*1539 FILLER_0_100_581
*1540 FILLER_0_100_587
*1541 FILLER_0_100_589
*1542 FILLER_0_100_601
*1543 FILLER_0_100_613
*1544 FILLER_0_100_65
*1545 FILLER_0_100_77
*1546 FILLER_0_100_83
*1547 FILLER_0_100_85
*1548 FILLER_0_100_97
*1549 FILLER_0_101_109
*1550 FILLER_0_101_113
*1551 FILLER_0_101_125
*1552 FILLER_0_101_137
*1553 FILLER_0_101_141
*1554 FILLER_0_101_15
*1555 FILLER_0_101_153
*1556 FILLER_0_101_165
*1557 FILLER_0_101_169
*1558 FILLER_0_101_181
*1559 FILLER_0_101_193
*1560 FILLER_0_101_197
*1561 FILLER_0_101_209
*1562 FILLER_0_101_221
*1563 FILLER_0_101_225
*1564 FILLER_0_101_237
*1565 FILLER_0_101_249
*1566 FILLER_0_101_253
*1567 FILLER_0_101_265
*1568 FILLER_0_101_27
*1569 FILLER_0_101_277
*1570 FILLER_0_101_281
*1571 FILLER_0_101_29
*1572 FILLER_0_101_293
*1573 FILLER_0_101_3
*1574 FILLER_0_101_305
*1575 FILLER_0_101_309
*1576 FILLER_0_101_321
*1577 FILLER_0_101_333
*1578 FILLER_0_101_337
*1579 FILLER_0_101_349
*1580 FILLER_0_101_361
*1581 FILLER_0_101_365
*1582 FILLER_0_101_377
*1583 FILLER_0_101_389
*1584 FILLER_0_101_393
*1585 FILLER_0_101_405
*1586 FILLER_0_101_41
*1587 FILLER_0_101_417
*1588 FILLER_0_101_421
*1589 FILLER_0_101_433
*1590 FILLER_0_101_445
*1591 FILLER_0_101_449
*1592 FILLER_0_101_461
*1593 FILLER_0_101_473
*1594 FILLER_0_101_477
*1595 FILLER_0_101_489
*1596 FILLER_0_101_501
*1597 FILLER_0_101_505
*1598 FILLER_0_101_517
*1599 FILLER_0_101_529
*1600 FILLER_0_101_53
*1601 FILLER_0_101_533
*1602 FILLER_0_101_545
*1603 FILLER_0_101_557
*1604 FILLER_0_101_561
*1605 FILLER_0_101_57
*1606 FILLER_0_101_573
*1607 FILLER_0_101_585
*1608 FILLER_0_101_589
*1609 FILLER_0_101_601
*1610 FILLER_0_101_613
*1611 FILLER_0_101_617
*1612 FILLER_0_101_69
*1613 FILLER_0_101_81
*1614 FILLER_0_101_85
*1615 FILLER_0_101_97
*1616 FILLER_0_10_10
*1617 FILLER_0_10_100
*1618 FILLER_0_10_137
*1619 FILLER_0_10_141
*1620 FILLER_0_10_153
*1621 FILLER_0_10_159
*1622 FILLER_0_10_184
*1623 FILLER_0_10_197
*1624 FILLER_0_10_201
*1625 FILLER_0_10_22
*1626 FILLER_0_10_233
*1627 FILLER_0_10_245
*1628 FILLER_0_10_251
*1629 FILLER_0_10_279
*1630 FILLER_0_10_29
*1631 FILLER_0_10_291
*1632 FILLER_0_10_303
*1633 FILLER_0_10_307
*1634 FILLER_0_10_330
*1635 FILLER_0_10_334
*1636 FILLER_0_10_342
*1637 FILLER_0_10_390
*1638 FILLER_0_10_398
*1639 FILLER_0_10_409
*1640 FILLER_0_10_41
*1641 FILLER_0_10_417
*1642 FILLER_0_10_421
*1643 FILLER_0_10_433
*1644 FILLER_0_10_445
*1645 FILLER_0_10_457
*1646 FILLER_0_10_469
*1647 FILLER_0_10_475
*1648 FILLER_0_10_477
*1649 FILLER_0_10_489
*1650 FILLER_0_10_501
*1651 FILLER_0_10_513
*1652 FILLER_0_10_525
*1653 FILLER_0_10_53
*1654 FILLER_0_10_531
*1655 FILLER_0_10_533
*1656 FILLER_0_10_545
*1657 FILLER_0_10_557
*1658 FILLER_0_10_569
*1659 FILLER_0_10_581
*1660 FILLER_0_10_587
*1661 FILLER_0_10_589
*1662 FILLER_0_10_601
*1663 FILLER_0_10_613
*1664 FILLER_0_10_65
*1665 FILLER_0_10_77
*1666 FILLER_0_10_83
*1667 FILLER_0_10_85
*1668 FILLER_0_10_93
*1669 FILLER_0_11_108
*1670 FILLER_0_11_126
*1671 FILLER_0_11_138
*1672 FILLER_0_11_14
*1673 FILLER_0_11_144
*1674 FILLER_0_11_151
*1675 FILLER_0_11_163
*1676 FILLER_0_11_167
*1677 FILLER_0_11_169
*1678 FILLER_0_11_206
*1679 FILLER_0_11_221
*1680 FILLER_0_11_233
*1681 FILLER_0_11_245
*1682 FILLER_0_11_257
*1683 FILLER_0_11_26
*1684 FILLER_0_11_269
*1685 FILLER_0_11_277
*1686 FILLER_0_11_281
*1687 FILLER_0_11_293
*1688 FILLER_0_11_305
*1689 FILLER_0_11_313
*1690 FILLER_0_11_324
*1691 FILLER_0_11_350
*1692 FILLER_0_11_357
*1693 FILLER_0_11_38
*1694 FILLER_0_11_381
*1695 FILLER_0_11_388
*1696 FILLER_0_11_414
*1697 FILLER_0_11_426
*1698 FILLER_0_11_438
*1699 FILLER_0_11_446
*1700 FILLER_0_11_449
*1701 FILLER_0_11_461
*1702 FILLER_0_11_473
*1703 FILLER_0_11_485
*1704 FILLER_0_11_497
*1705 FILLER_0_11_50
*1706 FILLER_0_11_503
*1707 FILLER_0_11_505
*1708 FILLER_0_11_517
*1709 FILLER_0_11_529
*1710 FILLER_0_11_541
*1711 FILLER_0_11_553
*1712 FILLER_0_11_559
*1713 FILLER_0_11_561
*1714 FILLER_0_11_573
*1715 FILLER_0_11_585
*1716 FILLER_0_11_597
*1717 FILLER_0_11_609
*1718 FILLER_0_11_615
*1719 FILLER_0_11_617
*1720 FILLER_0_11_80
*1721 FILLER_0_11_96
*1722 FILLER_0_12_106
*1723 FILLER_0_12_118
*1724 FILLER_0_12_130
*1725 FILLER_0_12_138
*1726 FILLER_0_12_141
*1727 FILLER_0_12_153
*1728 FILLER_0_12_165
*1729 FILLER_0_12_177
*1730 FILLER_0_12_189
*1731 FILLER_0_12_195
*1732 FILLER_0_12_20
*1733 FILLER_0_12_218
*1734 FILLER_0_12_230
*1735 FILLER_0_12_242
*1736 FILLER_0_12_250
*1737 FILLER_0_12_253
*1738 FILLER_0_12_265
*1739 FILLER_0_12_277
*1740 FILLER_0_12_289
*1741 FILLER_0_12_29
*1742 FILLER_0_12_301
*1743 FILLER_0_12_307
*1744 FILLER_0_12_309
*1745 FILLER_0_12_321
*1746 FILLER_0_12_360
*1747 FILLER_0_12_365
*1748 FILLER_0_12_369
*1749 FILLER_0_12_398
*1750 FILLER_0_12_407
*1751 FILLER_0_12_41
*1752 FILLER_0_12_419
*1753 FILLER_0_12_421
*1754 FILLER_0_12_433
*1755 FILLER_0_12_445
*1756 FILLER_0_12_457
*1757 FILLER_0_12_469
*1758 FILLER_0_12_475
*1759 FILLER_0_12_477
*1760 FILLER_0_12_489
*1761 FILLER_0_12_49
*1762 FILLER_0_12_501
*1763 FILLER_0_12_513
*1764 FILLER_0_12_525
*1765 FILLER_0_12_531
*1766 FILLER_0_12_533
*1767 FILLER_0_12_545
*1768 FILLER_0_12_557
*1769 FILLER_0_12_569
*1770 FILLER_0_12_581
*1771 FILLER_0_12_587
*1772 FILLER_0_12_589
*1773 FILLER_0_12_601
*1774 FILLER_0_12_613
*1775 FILLER_0_12_77
*1776 FILLER_0_12_8
*1777 FILLER_0_12_83
*1778 FILLER_0_13_105
*1779 FILLER_0_13_111
*1780 FILLER_0_13_113
*1781 FILLER_0_13_130
*1782 FILLER_0_13_142
*1783 FILLER_0_13_146
*1784 FILLER_0_13_15
*1785 FILLER_0_13_152
*1786 FILLER_0_13_164
*1787 FILLER_0_13_169
*1788 FILLER_0_13_181
*1789 FILLER_0_13_193
*1790 FILLER_0_13_205
*1791 FILLER_0_13_217