*SPEF "ieee 1481-1999"
*DESIGN "netlist_0"
*DATE "21:31:47 Saturday August 17, 2024"
*VENDOR "The OpenROAD Project"
*PROGRAM "OpenROAD"
*VERSION "d423155d69de7f683a23f6916ead418a615ad4ad"
*DESIGN_FLOW "NAME_SCOPE LOCAL" "PIN_CAP NONE"
*DIVIDER /
*DELIMITER :
*BUS_DELIMITER []
*T_UNIT 1 NS
*C_UNIT 1 PF
*R_UNIT 1 OHM
*L_UNIT 1 HENRY

*NAME_MAP
*3 clk
*4 in0
*5 in1
*6 in10
*7 in11
*8 in12
*9 in13
*10 in14
*11 in15
*12 in16
*13 in17
*14 in18
*15 in19
*16 in2
*17 in20
*18 in21
*19 in22
*20 in23
*21 in24
*22 in3
*23 in4
*24 in5
*25 in6
*26 in7
*27 in8
*28 in9
*29 out0
*30 out1
*31 out10
*32 out11
*33 out12
*34 out13
*35 out14
*36 out15
*37 out16
*38 out17
*39 out18
*40 out19
*41 out2
*42 out20
*43 out21
*44 out22
*45 out23
*46 out24
*47 out3
*48 out4
*49 out5
*50 out6
*51 out7
*52 out8
*53 out9
*54 rst
*55 clknet_0_clk
*56 clknet_0_net279
*57 clknet_0_net280
*58 clknet_0_net281
*59 clknet_0_net282
*60 clknet_0_net283
*61 clknet_0_net285
*62 clknet_0_net286
*63 clknet_0_net287
*64 clknet_0_net288
*65 clknet_0_net290
*66 clknet_0_net291
*67 clknet_0_net292
*68 clknet_0_net295
*69 clknet_0_net296
*70 clknet_0_net397
*71 clknet_0_net398
*72 clknet_0_net417
*73 clknet_0_net419
*74 clknet_0_net422
*75 clknet_0_net423
*76 clknet_0_net424
*77 clknet_0_net425
*78 clknet_0_net426
*79 clknet_0_net427
*80 clknet_0_net428
*81 clknet_0_net429
*82 clknet_0_net430
*83 clknet_0_net432
*84 clknet_0_net433
*85 clknet_0_net434
*86 clknet_0_net437
*87 clknet_0_net460
*88 clknet_0_net461
*89 clknet_0_net463
*90 clknet_0_net465
*91 clknet_0_net469
*92 clknet_0_net470
*93 clknet_0_net473
*94 clknet_0_net475
*95 clknet_0_net566
*96 clknet_0_net574
*97 clknet_0_net576
*98 clknet_0_net577
*99 clknet_0_net580
*100 clknet_0_net582
*101 clknet_0_net583
*102 clknet_0_net584
*103 clknet_0_net585
*104 clknet_0_net663
*105 clknet_0_net686
*106 clknet_0_net687
*107 clknet_0_net689
*108 clknet_0_net693
*109 clknet_0_net707
*110 clknet_0_net708
*111 clknet_0_net744
*112 clknet_0_net745
*113 clknet_0_net749
*114 clknet_1_0__leaf_net279
*115 clknet_1_0__leaf_net280
*116 clknet_1_0__leaf_net281
*117 clknet_1_0__leaf_net282
*118 clknet_1_0__leaf_net283
*119 clknet_1_0__leaf_net285
*120 clknet_1_0__leaf_net286
*121 clknet_1_0__leaf_net287
*122 clknet_1_0__leaf_net288
*123 clknet_1_0__leaf_net290
*124 clknet_1_0__leaf_net291
*125 clknet_1_0__leaf_net292
*126 clknet_1_0__leaf_net295
*127 clknet_1_0__leaf_net296
*128 clknet_1_0__leaf_net397
*129 clknet_1_0__leaf_net398
*130 clknet_1_0__leaf_net417
*131 clknet_1_0__leaf_net419
*132 clknet_1_0__leaf_net422
*133 clknet_1_0__leaf_net423
*134 clknet_1_0__leaf_net424
*135 clknet_1_0__leaf_net425
*136 clknet_1_0__leaf_net426
*137 clknet_1_0__leaf_net427
*138 clknet_1_0__leaf_net428
*139 clknet_1_0__leaf_net429
*140 clknet_1_0__leaf_net430
*141 clknet_1_0__leaf_net432
*142 clknet_1_0__leaf_net433
*143 clknet_1_0__leaf_net434
*144 clknet_1_0__leaf_net437
*145 clknet_1_0__leaf_net460
*146 clknet_1_0__leaf_net461
*147 clknet_1_0__leaf_net463
*148 clknet_1_0__leaf_net465
*149 clknet_1_0__leaf_net469
*150 clknet_1_0__leaf_net470
*151 clknet_1_0__leaf_net473
*152 clknet_1_0__leaf_net475
*153 clknet_1_0__leaf_net566
*154 clknet_1_0__leaf_net574
*155 clknet_1_0__leaf_net576
*156 clknet_1_0__leaf_net577
*157 clknet_1_0__leaf_net580
*158 clknet_1_0__leaf_net582
*159 clknet_1_0__leaf_net583
*160 clknet_1_0__leaf_net584
*161 clknet_1_0__leaf_net585
*162 clknet_1_0__leaf_net663
*163 clknet_1_0__leaf_net686
*164 clknet_1_0__leaf_net687
*165 clknet_1_0__leaf_net689
*166 clknet_1_0__leaf_net693
*167 clknet_1_0__leaf_net707
*168 clknet_1_0__leaf_net708
*169 clknet_1_0__leaf_net744
*170 clknet_1_0__leaf_net745
*171 clknet_1_0__leaf_net749
*172 clknet_1_1__leaf_net279
*173 clknet_1_1__leaf_net280
*174 clknet_1_1__leaf_net281
*175 clknet_1_1__leaf_net282
*176 clknet_1_1__leaf_net283
*177 clknet_1_1__leaf_net285
*178 clknet_1_1__leaf_net286
*179 clknet_1_1__leaf_net287
*180 clknet_1_1__leaf_net288
*181 clknet_1_1__leaf_net290
*182 clknet_1_1__leaf_net291
*183 clknet_1_1__leaf_net292
*184 clknet_1_1__leaf_net295
*185 clknet_1_1__leaf_net296
*186 clknet_1_1__leaf_net397
*187 clknet_1_1__leaf_net398
*188 clknet_1_1__leaf_net417
*189 clknet_1_1__leaf_net419
*190 clknet_1_1__leaf_net422
*191 clknet_1_1__leaf_net423
*192 clknet_1_1__leaf_net424
*193 clknet_1_1__leaf_net425
*194 clknet_1_1__leaf_net426
*195 clknet_1_1__leaf_net427
*196 clknet_1_1__leaf_net428
*197 clknet_1_1__leaf_net429
*198 clknet_1_1__leaf_net430
*199 clknet_1_1__leaf_net432
*200 clknet_1_1__leaf_net433
*201 clknet_1_1__leaf_net434
*202 clknet_1_1__leaf_net437
*203 clknet_1_1__leaf_net460
*204 clknet_1_1__leaf_net461
*205 clknet_1_1__leaf_net463
*206 clknet_1_1__leaf_net465
*207 clknet_1_1__leaf_net469
*208 clknet_1_1__leaf_net470
*209 clknet_1_1__leaf_net473
*210 clknet_1_1__leaf_net475
*211 clknet_1_1__leaf_net566
*212 clknet_1_1__leaf_net574
*213 clknet_1_1__leaf_net576
*214 clknet_1_1__leaf_net577
*215 clknet_1_1__leaf_net580
*216 clknet_1_1__leaf_net582
*217 clknet_1_1__leaf_net583
*218 clknet_1_1__leaf_net584
*219 clknet_1_1__leaf_net585
*220 clknet_1_1__leaf_net663
*221 clknet_1_1__leaf_net686
*222 clknet_1_1__leaf_net687
*223 clknet_1_1__leaf_net689
*224 clknet_1_1__leaf_net693
*225 clknet_1_1__leaf_net707
*226 clknet_1_1__leaf_net708
*227 clknet_1_1__leaf_net744
*228 clknet_1_1__leaf_net745
*229 clknet_1_1__leaf_net749
*230 clknet_4_0_0_clk
*231 clknet_4_10_0_clk
*232 clknet_4_11_0_clk
*233 clknet_4_12_0_clk
*234 clknet_4_13_0_clk
*235 clknet_4_14_0_clk
*236 clknet_4_15_0_clk
*237 clknet_4_1_0_clk
*238 clknet_4_2_0_clk
*239 clknet_4_3_0_clk
*240 clknet_4_4_0_clk
*241 clknet_4_5_0_clk
*242 clknet_4_6_0_clk
*243 clknet_4_7_0_clk
*244 clknet_4_8_0_clk
*245 clknet_4_9_0_clk
*246 net0
*247 net1
*248 net10
*249 net100
*250 net101
*251 net102
*252 net103
*253 net104
*254 net105
*255 net106
*256 net107
*257 net108
*258 net109
*259 net11
*260 net110
*261 net111
*262 net112
*263 net113
*264 net114
*265 net115
*266 net116
*267 net117
*268 net118
*269 net119
*270 net12
*271 net120
*272 net121
*273 net122
*274 net123
*275 net124
*276 net125
*277 net126
*278 net127
*279 net128
*280 net129
*281 net13
*282 net130
*283 net131
*284 net132
*285 net133
*286 net134
*287 net135
*288 net136
*289 net137
*290 net138
*291 net139
*292 net14
*293 net140
*294 net141
*295 net142
*296 net143
*297 net144
*298 net145
*299 net146
*300 net147
*301 net148
*302 net149
*303 net15
*304 net150
*305 net151
*306 net152
*307 net153
*308 net154
*309 net155
*310 net156
*311 net157
*312 net158
*313 net159
*314 net16
*315 net160
*316 net161
*317 net162
*318 net163
*319 net164
*320 net165
*321 net166
*322 net167
*323 net168
*324 net169
*325 net17
*326 net170
*327 net171
*328 net172
*329 net173
*330 net174
*331 net175
*332 net176
*333 net177
*334 net178
*335 net179
*336 net18
*337 net180
*338 net181
*339 net182
*340 net183
*341 net184
*342 net185
*343 net186
*344 net187
*345 net188
*346 net189
*347 net19
*348 net190
*349 net191
*350 net192
*351 net193
*352 net194
*353 net195
*354 net196
*355 net197
*356 net198
*357 net199
*358 net2
*359 net20
*360 net200
*361 net201
*362 net202
*363 net203
*364 net204
*365 net205
*366 net206
*367 net207
*368 net208
*369 net209
*370 net21
*371 net210
*372 net211
*373 net212
*374 net213
*375 net214
*376 net215
*377 net216
*378 net217
*379 net218
*380 net219
*381 net22
*382 net220
*383 net221
*384 net222
*385 net223
*386 net224
*387 net225
*388 net226
*389 net227
*390 net228
*391 net229
*392 net23
*393 net230
*394 net231
*395 net232
*396 net233
*397 net234
*398 net235
*399 net236
*400 net237
*401 net238
*402 net239
*403 net24
*404 net240
*405 net241
*406 net242
*407 net243
*408 net244
*409 net245
*410 net246
*411 net247
*412 net248
*413 net249
*414 net25
*415 net250
*416 net251
*417 net252
*418 net253
*419 net254
*420 net255
*421 net256
*422 net257
*423 net258
*424 net259
*425 net26
*426 net260
*427 net261
*428 net262
*429 net263
*430 net264
*431 net265
*432 net266
*433 net267
*434 net268
*435 net269
*436 net27
*437 net270
*438 net271
*439 net272
*440 net273
*441 net274
*442 net275
*443 net276
*444 net277
*445 net278
*446 net279
*447 net28
*448 net280
*449 net281
*450 net282
*451 net283
*452 net284
*453 net285
*454 net286
*455 net287
*456 net288
*457 net289
*458 net29
*459 net290
*460 net291
*461 net292
*462 net293
*463 net294
*464 net295
*465 net296
*466 net297
*467 net298
*468 net299
*469 net3
*470 net30
*471 net300
*472 net301
*473 net302
*474 net303
*475 net304
*476 net305
*477 net306
*478 net307
*479 net308
*480 net309
*481 net31
*482 net310
*483 net311
*484 net312
*485 net313
*486 net314
*487 net315
*488 net316
*489 net317
*490 net318
*491 net319
*492 net32
*493 net320
*494 net321
*495 net322
*496 net323
*497 net324
*498 net325
*499 net326
*500 net327
*501 net328
*502 net329
*503 net33
*504 net330
*505 net331
*506 net332
*507 net333
*508 net334
*509 net335
*510 net336
*511 net337
*512 net338
*513 net339
*514 net34
*515 net340
*516 net341
*517 net342
*518 net343
*519 net344
*520 net345
*521 net346
*522 net347
*523 net348
*524 net349
*525 net35
*526 net350
*527 net351
*528 net352
*529 net353
*530 net354
*531 net355
*532 net356
*533 net357
*534 net358
*535 net359
*536 net36
*537 net360
*538 net361
*539 net362
*540 net363
*541 net364
*542 net365
*543 net366
*544 net367
*545 net368
*546 net369
*547 net37
*548 net370
*549 net371
*550 net372
*551 net373
*552 net374
*553 net375
*554 net376
*555 net377
*556 net378
*557 net379
*558 net38
*559 net380
*560 net381
*561 net382
*562 net383
*563 net384
*564 net385
*565 net386
*566 net387
*567 net388
*568 net389
*569 net39
*570 net390
*571 net391
*572 net392
*573 net393
*574 net394
*575 net395
*576 net396
*577 net397
*578 net398
*579 net399
*580 net4
*581 net40
*582 net400
*583 net401
*584 net402
*585 net403
*586 net404
*587 net405
*588 net406
*589 net407
*590 net408
*591 net409
*592 net41
*593 net410
*594 net411
*595 net412
*596 net413
*597 net414
*598 net415
*599 net416
*600 net417
*601 net418
*602 net419
*603 net42
*604 net420
*605 net421
*606 net422
*607 net423
*608 net424
*609 net425
*610 net426
*611 net427
*612 net428
*613 net429
*614 net43
*615 net430
*616 net431
*617 net432
*618 net433
*619 net434
*620 net435
*621 net436
*622 net437
*623 net438
*624 net439
*625 net44
*626 net440
*627 net441
*628 net442
*629 net443
*630 net444
*631 net445
*632 net446
*633 net447
*634 net448
*635 net449
*636 net45
*637 net450
*638 net451
*639 net452
*640 net453
*641 net454
*642 net455
*643 net456
*644 net457
*645 net458
*646 net459
*647 net46
*648 net460
*649 net461
*650 net462
*651 net463
*652 net464
*653 net465
*654 net466
*655 net467
*656 net468
*657 net469
*658 net47
*659 net470
*660 net471
*661 net472
*662 net473
*663 net474
*664 net475
*665 net476
*666 net477
*667 net478
*668 net479
*669 net48
*670 net480
*671 net481
*672 net482
*673 net483
*674 net484
*675 net485
*676 net486
*677 net487
*678 net488
*679 net489
*680 net49
*681 net490
*682 net491
*683 net492
*684 net493
*685 net494
*686 net495
*687 net496
*688 net497
*689 net498
*690 net499
*691 net5
*692 net50
*693 net500
*694 net501
*695 net502
*696 net503
*697 net504
*698 net505
*699 net506
*700 net507
*701 net508
*702 net509
*703 net51
*704 net510
*705 net511
*706 net512
*707 net513
*708 net514
*709 net515
*710 net516
*711 net517
*712 net518
*713 net519
*714 net52
*715 net520
*716 net521
*717 net522
*718 net523
*719 net524
*720 net525
*721 net526
*722 net527
*723 net528
*724 net529
*725 net53
*726 net530
*727 net531
*728 net532
*729 net533
*730 net534
*731 net535
*732 net536
*733 net537
*734 net538
*735 net539
*736 net54
*737 net540
*738 net541
*739 net542
*740 net543
*741 net544
*742 net545
*743 net546
*744 net547
*745 net548
*746 net549
*747 net55
*748 net550
*749 net551
*750 net552
*751 net553
*752 net554
*753 net555
*754 net556
*755 net557
*756 net558
*757 net559
*758 net56
*759 net560
*760 net561
*761 net562
*762 net563
*763 net564
*764 net565
*765 net566
*766 net567
*767 net568
*768 net569
*769 net57
*770 net570
*771 net571
*772 net572
*773 net573
*774 net574
*775 net575
*776 net576
*777 net577
*778 net578
*779 net579
*780 net58
*781 net580
*782 net581
*783 net582
*784 net583
*785 net584
*786 net585
*787 net586
*788 net587
*789 net588
*790 net589
*791 net59
*792 net590
*793 net591
*794 net592
*795 net593
*796 net594
*797 net595
*798 net596
*799 net597
*800 net598
*801 net599
*802 net6
*803 net60
*804 net600
*805 net601
*806 net602
*807 net603
*808 net604
*809 net605
*810 net606
*811 net607
*812 net608
*813 net609
*814 net61
*815 net610
*816 net611
*817 net612
*818 net613
*819 net614
*820 net615
*821 net616
*822 net617
*823 net618
*824 net619
*825 net62
*826 net620
*827 net621
*828 net622
*829 net623
*830 net624
*831 net625
*832 net626
*833 net627
*834 net628
*835 net629
*836 net63
*837 net630
*838 net631
*839 net632
*840 net633
*841 net634
*842 net635
*843 net636
*844 net637
*845 net638
*846 net639
*847 net64
*848 net640
*849 net641
*850 net642
*851 net643
*852 net644
*853 net645
*854 net646
*855 net647
*856 net648
*857 net649
*858 net65
*859 net650
*860 net651
*861 net652
*862 net653
*863 net654
*864 net655
*865 net656
*866 net657
*867 net658
*868 net659
*869 net66
*870 net660
*871 net661
*872 net662
*873 net663
*874 net664
*875 net665
*876 net666
*877 net667
*878 net668
*879 net669
*880 net67
*881 net670
*882 net671
*883 net672
*884 net673
*885 net674
*886 net675
*887 net676
*888 net677
*889 net678
*890 net679
*891 net68
*892 net680
*893 net681
*894 net682
*895 net683
*896 net684
*897 net685
*898 net686
*899 net687
*900 net688
*901 net689
*902 net69
*903 net690
*904 net691
*905 net692
*906 net693
*907 net694
*908 net695
*909 net696
*910 net697
*911 net698
*912 net699
*913 net7
*914 net70
*915 net700
*916 net701
*917 net702
*918 net703
*919 net704
*920 net705
*921 net706
*922 net707
*923 net708
*924 net709
*925 net71
*926 net710
*927 net711
*928 net712
*929 net713
*930 net714
*931 net715
*932 net716
*933 net717
*934 net718
*935 net719
*936 net72
*937 net720
*938 net721
*939 net722
*940 net723
*941 net724
*942 net725
*943 net726
*944 net727
*945 net728
*946 net729
*947 net73
*948 net730
*949 net731
*950 net732
*951 net733
*952 net734
*953 net735
*954 net736
*955 net737
*956 net738
*957 net739
*958 net74
*959 net740
*960 net741
*961 net742
*962 net743
*963 net744
*964 net745
*965 net746
*966 net747
*967 net748
*968 net749
*969 net75
*970 net750
*971 net751
*972 net752
*973 net753
*974 net754
*975 net755
*976 net756
*977 net757
*978 net758
*979 net759
*980 net76
*981 net760
*982 net761
*983 net762
*984 net763
*985 net764
*986 net765
*987 net766
*988 net767
*989 net768
*990 net769
*991 net77
*992 net770
*993 net771
*994 net772
*995 net773
*996 net774
*997 net775
*998 net776
*999 net777
*1000 net778
*1001 net779
*1002 net78
*1003 net780
*1004 net781
*1005 net782
*1006 net783
*1007 net784
*1008 net785
*1009 net786
*1010 net787
*1011 net788
*1012 net789
*1013 net79
*1014 net790
*1015 net791
*1016 net792
*1017 net793
*1018 net794
*1019 net795
*1020 net796
*1021 net797
*1022 net798
*1023 net799
*1024 net8
*1025 net80
*1026 net800
*1027 net801
*1028 net802
*1029 net803
*1030 net804
*1031 net805
*1032 net806
*1033 net807
*1034 net808
*1035 net809
*1036 net81
*1037 net810
*1038 net811
*1039 net812
*1040 net82
*1041 net83
*1042 net84
*1043 net85
*1044 net86
*1045 net87
*1046 net88
*1047 net89
*1048 net9
*1049 net90
*1050 net91
*1051 net92
*1052 net93
*1053 net94
*1054 net95
*1055 net96
*1056 net97
*1057 net98
*1058 net99
*1059 ANTENNA_c111_CLK
*1060 ANTENNA_c113_CLK
*1061 ANTENNA_c115_CLK_N
*1062 ANTENNA_c116_CLK_N
*1063 ANTENNA_c122_CLK
*1064 ANTENNA_c179_A3
*1065 ANTENNA_c190_B
*1066 ANTENNA_c196_Y
*1067 ANTENNA_c197_RESET_B
*1068 ANTENNA_c204_CLK
*1069 ANTENNA_c205_SCD
*1070 ANTENNA_c206_SCD
*1071 ANTENNA_c207_SCE
*1072 ANTENNA_c209_CLK_N
*1073 ANTENNA_c273_B
*1074 ANTENNA_c279_CLK
*1075 ANTENNA_c284_CLK
*1076 ANTENNA_c286_CLK_N
*1077 ANTENNA_c289_CLK_N
*1078 ANTENNA_c293_CLK
*1079 ANTENNA_c296_CLK
*1080 ANTENNA_c316_SET_B
*1081 ANTENNA_c317_A
*1082 ANTENNA_c331_D
*1083 ANTENNA_c333_S0
*1084 ANTENNA_c376_CLK
*1085 ANTENNA_c377_CLK
*1086 ANTENNA_c411_CLK
*1087 ANTENNA_c414_X
*1088 ANTENNA_c415_SCE
*1089 ANTENNA_c416_SCE
*1090 ANTENNA_c417_RESET_B
*1091 ANTENNA_c418_S1
*1092 ANTENNA_c419_SCD
*1093 ANTENNA_c427_GATE
*1094 ANTENNA_c42_A
*1095 ANTENNA_c442_CLK
*1096 ANTENNA_c444_CLK
*1097 ANTENNA_c452_CLK
*1098 ANTENNA_c482_X
*1099 ANTENNA_c503_X
*1100 ANTENNA_c507_Y
*1101 ANTENNA_c510_B
*1102 ANTENNA_c518_SCE
*1103 ANTENNA_c522_SET_B
*1104 ANTENNA_c527_B
*1105 ANTENNA_c535_SCD
*1106 ANTENNA_c536_Y
*1107 ANTENNA_c537_B
*1108 ANTENNA_c538_RESET_B
*1109 ANTENNA_c539_SET_B
*1110 ANTENNA_c541_RESET_B
*1111 ANTENNA_c542_B1
*1112 ANTENNA_c549_B
*1113 ANTENNA_c558_S0
*1114 ANTENNA_c565_A1
*1115 ANTENNA_c570_B
*1116 ANTENNA_c587_CLK
*1117 ANTENNA_c603_CLK
*1118 ANTENNA_c607_CLK
*1119 ANTENNA_c638_A
*1120 ANTENNA_c643_B1_N
*1121 ANTENNA_c67_X
*1122 ANTENNA_c68_A
*1123 ANTENNA_c69_B
*1124 ANTENNA_c716_GATE
*1125 ANTENNA_c71_A2
*1126 ANTENNA_c722_CLK
*1127 ANTENNA_c72_B1_N
*1128 ANTENNA_c76_B1
*1129 ANTENNA_c80_B1_N
*1130 ANTENNA_c82_S0
*1131 ANTENNA_c83_S0
*1132 ANTENNA_c84_CLK
*1133 ANTENNA_clkbuf_0_clk_A
*1134 ANTENNA_clkbuf_0_clk_X
*1135 ANTENNA_clkbuf_4_0_0_clk_A
*1136 ANTENNA_clkbuf_4_0_0_clk_X
*1137 ANTENNA_clkbuf_4_10_0_clk_A
*1138 ANTENNA_clkbuf_4_11_0_clk_A
*1139 ANTENNA_clkbuf_4_12_0_clk_A
*1140 ANTENNA_clkbuf_4_13_0_clk_A
*1141 ANTENNA_clkbuf_4_14_0_clk_A
*1142 ANTENNA_clkbuf_4_15_0_clk_A
*1143 ANTENNA_clkbuf_4_1_0_clk_A
*1144 ANTENNA_clkbuf_4_2_0_clk_A
*1145 ANTENNA_clkbuf_4_3_0_clk_A
*1146 ANTENNA_clkbuf_4_4_0_clk_A
*1147 ANTENNA_clkbuf_4_4_0_clk_X
*1148 ANTENNA_clkbuf_4_5_0_clk_A
*1149 ANTENNA_clkbuf_4_6_0_clk_A
*1150 ANTENNA_clkbuf_4_7_0_clk_A
*1151 ANTENNA_clkbuf_4_8_0_clk_A
*1152 ANTENNA_clkbuf_4_8_0_clk_X
*1153 ANTENNA_clkbuf_4_9_0_clk_A
*1154 ANTENNA_clkbuf_4_9_0_clk_X
*1155 ANTENNA_input10_A
*1156 ANTENNA_input11_A
*1157 ANTENNA_input12_A
*1158 ANTENNA_input13_A
*1159 ANTENNA_input14_A
*1160 ANTENNA_input15_A
*1161 ANTENNA_input16_A
*1162 ANTENNA_input17_A
*1163 ANTENNA_input18_A
*1164 ANTENNA_input19_A
*1165 ANTENNA_input1_A
*1166 ANTENNA_input20_A
*1167 ANTENNA_input21_A
*1168 ANTENNA_input22_A
*1169 ANTENNA_input23_A
*1170 ANTENNA_input24_A
*1171 ANTENNA_input2_A
*1172 ANTENNA_input3_A
*1173 ANTENNA_input4_A
*1174 ANTENNA_input5_A
*1175 ANTENNA_input6_A
*1176 ANTENNA_input7_A
*1177 ANTENNA_input8_A
*1178 ANTENNA_input9_A
*1179 ANTENNA_max_cap46_A
*1180 ANTENNA_max_cap47_X
*1181 ANTENNA_output32_A
*1182 ANTENNA_output33_A
*1183 ANTENNA_s733_CLK
*1184 ANTENNA_s735_CLK
*1185 ANTENNA_s737_GATE_N
*1186 FILLER_0_0_109
*1187 FILLER_0_0_113
*1188 FILLER_0_0_125
*1189 FILLER_0_0_137
*1190 FILLER_0_0_141
*1191 FILLER_0_0_15
*1192 FILLER_0_0_153
*1193 FILLER_0_0_165
*1194 FILLER_0_0_169
*1195 FILLER_0_0_181
*1196 FILLER_0_0_193
*1197 FILLER_0_0_197
*1198 FILLER_0_0_209
*1199 FILLER_0_0_221
*1200 FILLER_0_0_225
*1201 FILLER_0_0_237
*1202 FILLER_0_0_249
*1203 FILLER_0_0_253
*1204 FILLER_0_0_261
*1205 FILLER_0_0_266
*1206 FILLER_0_0_27
*1207 FILLER_0_0_278
*1208 FILLER_0_0_281
*1209 FILLER_0_0_29
*1210 FILLER_0_0_293
*1211 FILLER_0_0_3
*1212 FILLER_0_0_305
*1213 FILLER_0_0_309
*1214 FILLER_0_0_321
*1215 FILLER_0_0_333
*1216 FILLER_0_0_337
*1217 FILLER_0_0_349
*1218 FILLER_0_0_361
*1219 FILLER_0_0_365
*1220 FILLER_0_0_377
*1221 FILLER_0_0_385
*1222 FILLER_0_0_391
*1223 FILLER_0_0_393
*1224 FILLER_0_0_405
*1225 FILLER_0_0_41
*1226 FILLER_0_0_413
*1227 FILLER_0_0_421
*1228 FILLER_0_0_427
*1229 FILLER_0_0_434
*1230 FILLER_0_0_441
*1231 FILLER_0_0_449
*1232 FILLER_0_0_455
*1233 FILLER_0_0_462
*1234 FILLER_0_0_474
*1235 FILLER_0_0_477
*1236 FILLER_0_0_489
*1237 FILLER_0_0_501
*1238 FILLER_0_0_505
*1239 FILLER_0_0_517
*1240 FILLER_0_0_529
*1241 FILLER_0_0_53
*1242 FILLER_0_0_533
*1243 FILLER_0_0_545
*1244 FILLER_0_0_557
*1245 FILLER_0_0_561
*1246 FILLER_0_0_57
*1247 FILLER_0_0_573
*1248 FILLER_0_0_585
*1249 FILLER_0_0_589
*1250 FILLER_0_0_601
*1251 FILLER_0_0_613
*1252 FILLER_0_0_617
*1253 FILLER_0_0_69
*1254 FILLER_0_0_81
*1255 FILLER_0_0_85
*1256 FILLER_0_0_97
*1257 FILLER_0_100_109
*1258 FILLER_0_100_121
*1259 FILLER_0_100_133
*1260 FILLER_0_100_139
*1261 FILLER_0_100_141
*1262 FILLER_0_100_15
*1263 FILLER_0_100_153
*1264 FILLER_0_100_165
*1265 FILLER_0_100_177
*1266 FILLER_0_100_189
*1267 FILLER_0_100_195
*1268 FILLER_0_100_197
*1269 FILLER_0_100_209
*1270 FILLER_0_100_221
*1271 FILLER_0_100_233
*1272 FILLER_0_100_245
*1273 FILLER_0_100_251
*1274 FILLER_0_100_253
*1275 FILLER_0_100_265
*1276 FILLER_0_100_27
*1277 FILLER_0_100_277
*1278 FILLER_0_100_289
*1279 FILLER_0_100_29
*1280 FILLER_0_100_3
*1281 FILLER_0_100_301
*1282 FILLER_0_100_307
*1283 FILLER_0_100_309
*1284 FILLER_0_100_321
*1285 FILLER_0_100_333
*1286 FILLER_0_100_345
*1287 FILLER_0_100_357
*1288 FILLER_0_100_363
*1289 FILLER_0_100_365
*1290 FILLER_0_100_377
*1291 FILLER_0_100_389
*1292 FILLER_0_100_401
*1293 FILLER_0_100_41
*1294 FILLER_0_100_413
*1295 FILLER_0_100_419
*1296 FILLER_0_100_421
*1297 FILLER_0_100_433
*1298 FILLER_0_100_445
*1299 FILLER_0_100_457
*1300 FILLER_0_100_469
*1301 FILLER_0_100_475
*1302 FILLER_0_100_477
*1303 FILLER_0_100_489
*1304 FILLER_0_100_501
*1305 FILLER_0_100_513
*1306 FILLER_0_100_525
*1307 FILLER_0_100_53
*1308 FILLER_0_100_531
*1309 FILLER_0_100_533
*1310 FILLER_0_100_545
*1311 FILLER_0_100_557
*1312 FILLER_0_100_569
*1313 FILLER_0_100_581
*1314 FILLER_0_100_587
*1315 FILLER_0_100_589
*1316 FILLER_0_100_601
*1317 FILLER_0_100_613
*1318 FILLER_0_100_65
*1319 FILLER_0_100_77
*1320 FILLER_0_100_83
*1321 FILLER_0_100_85
*1322 FILLER_0_100_97
*1323 FILLER_0_101_109
*1324 FILLER_0_101_113
*1325 FILLER_0_101_125
*1326 FILLER_0_101_137
*1327 FILLER_0_101_141
*1328 FILLER_0_101_15
*1329 FILLER_0_101_153
*1330 FILLER_0_101_165
*1331 FILLER_0_101_169
*1332 FILLER_0_101_181
*1333 FILLER_0_101_193
*1334 FILLER_0_101_197
*1335 FILLER_0_101_209
*1336 FILLER_0_101_221
*1337 FILLER_0_101_225
*1338 FILLER_0_101_237
*1339 FILLER_0_101_249
*1340 FILLER_0_101_253
*1341 FILLER_0_101_265
*1342 FILLER_0_101_27
*1343 FILLER_0_101_277
*1344 FILLER_0_101_281
*1345 FILLER_0_101_29
*1346 FILLER_0_101_293
*1347 FILLER_0_101_3
*1348 FILLER_0_101_305
*1349 FILLER_0_101_309
*1350 FILLER_0_101_321
*1351 FILLER_0_101_333
*1352 FILLER_0_101_337
*1353 FILLER_0_101_349
*1354 FILLER_0_101_361
*1355 FILLER_0_101_365
*1356 FILLER_0_101_377
*1357 FILLER_0_101_389
*1358 FILLER_0_101_393
*1359 FILLER_0_101_405
*1360 FILLER_0_101_41
*1361 FILLER_0_101_417
*1362 FILLER_0_101_421
*1363 FILLER_0_101_433
*1364 FILLER_0_101_445
*1365 FILLER_0_101_449
*1366 FILLER_0_101_461
*1367 FILLER_0_101_473
*1368 FILLER_0_101_477
*1369 FILLER_0_101_489
*1370 FILLER_0_101_501
*1371 FILLER_0_101_505
*1372 FILLER_0_101_517
*1373 FILLER_0_101_529
*1374 FILLER_0_101_53
*1375 FILLER_0_101_533
*1376 FILLER_0_101_545
*1377 FILLER_0_101_557
*1378 FILLER_0_101_561
*1379 FILLER_0_101_57
*1380 FILLER_0_101_573
*1381 FILLER_0_101_585
*1382 FILLER_0_101_589
*1383 FILLER_0_101_601
*1384 FILLER_0_101_613
*1385 FILLER_0_101_617
*1386 FILLER_0_101_69
*1387 FILLER_0_101_81
*1388 FILLER_0_101_85
*1389 FILLER_0_101_97
*1390 FILLER_0_10_109
*1391 FILLER_0_10_121
*1392 FILLER_0_10_133
*1393 FILLER_0_10_139
*1394 FILLER_0_10_141
*1395 FILLER_0_10_15
*1396 FILLER_0_10_153
*1397 FILLER_0_10_167
*1398 FILLER_0_10_179
*1399 FILLER_0_10_194
*1400 FILLER_0_10_197
*1401 FILLER_0_10_209
*1402 FILLER_0_10_221
*1403 FILLER_0_10_233
*1404 FILLER_0_10_245
*1405 FILLER_0_10_251
*1406 FILLER_0_10_253
*1407 FILLER_0_10_27
*1408 FILLER_0_10_285
*1409 FILLER_0_10_29
*1410 FILLER_0_10_3
*1411 FILLER_0_10_304
*1412 FILLER_0_10_317
*1413 FILLER_0_10_348
*1414 FILLER_0_10_360
*1415 FILLER_0_10_365
*1416 FILLER_0_10_377
*1417 FILLER_0_10_389
*1418 FILLER_0_10_401
*1419 FILLER_0_10_41
*1420 FILLER_0_10_413
*1421 FILLER_0_10_419
*1422 FILLER_0_10_421
*1423 FILLER_0_10_433
*1424 FILLER_0_10_445
*1425 FILLER_0_10_451
*1426 FILLER_0_10_465
*1427 FILLER_0_10_473
*1428 FILLER_0_10_477
*1429 FILLER_0_10_489
*1430 FILLER_0_10_501
*1431 FILLER_0_10_513
*1432 FILLER_0_10_525
*1433 FILLER_0_10_53
*1434 FILLER_0_10_531
*1435 FILLER_0_10_533
*1436 FILLER_0_10_545
*1437 FILLER_0_10_557
*1438 FILLER_0_10_569
*1439 FILLER_0_10_581
*1440 FILLER_0_10_587
*1441 FILLER_0_10_589
*1442 FILLER_0_10_601
*1443 FILLER_0_10_613
*1444 FILLER_0_10_65
*1445 FILLER_0_10_77
*1446 FILLER_0_10_83
*1447 FILLER_0_10_85
*1448 FILLER_0_10_97
*1449 FILLER_0_11_105
*1450 FILLER_0_11_111
*1451 FILLER_0_11_113
*1452 FILLER_0_11_125
*1453 FILLER_0_11_137
*1454 FILLER_0_11_149
*1455 FILLER_0_11_15
*1456 FILLER_0_11_161
*1457 FILLER_0_11_167
*1458 FILLER_0_11_169
*1459 FILLER_0_11_181
*1460 FILLER_0_11_193
*1461 FILLER_0_11_205
*1462 FILLER_0_11_217
*1463 FILLER_0_11_223
*1464 FILLER_0_11_225
*1465 FILLER_0_11_237
*1466 FILLER_0_11_249
*1467 FILLER_0_11_261
*1468 FILLER_0_11_27
*1469 FILLER_0_11_273
*1470 FILLER_0_11_279
*1471 FILLER_0_11_281
*1472 FILLER_0_11_293
*1473 FILLER_0_11_3
*1474 FILLER_0_11_301
*1475 FILLER_0_11_317
*1476 FILLER_0_11_329
*1477 FILLER_0_11_335
*1478 FILLER_0_11_337
*1479 FILLER_0_11_349
*1480 FILLER_0_11_361
*1481 FILLER_0_11_369
*1482 FILLER_0_11_39
*1483 FILLER_0_11_393
*1484 FILLER_0_11_405
*1485 FILLER_0_11_416
*1486 FILLER_0_11_440
*1487 FILLER_0_11_449
*1488 FILLER_0_11_461
*1489 FILLER_0_11_473
*1490 FILLER_0_11_485
*1491 FILLER_0_11_497
*1492 FILLER_0_11_503
*1493 FILLER_0_11_505
*1494 FILLER_0_11_51
*1495 FILLER_0_11_517
*1496 FILLER_0_11_529
*1497 FILLER_0_11_541
*1498 FILLER_0_11_55
*1499 FILLER_0_11_553
*1500 FILLER_0_11_559
*1501 FILLER_0_11_561
*1502 FILLER_0_11_57
*1503 FILLER_0_11_573
*1504 FILLER_0_11_585
*1505 FILLER_0_11_597
*1506 FILLER_0_11_609
*1507 FILLER_0_11_615
*1508 FILLER_0_11_617
*1509 FILLER_0_11_69
*1510 FILLER_0_11_81
*1511 FILLER_0_11_93
*1512 FILLER_0_12_109
*1513 FILLER_0_12_121
*1514 FILLER_0_12_133
*1515 FILLER_0_12_139
*1516 FILLER_0_12_141
*1517 FILLER_0_12_15
*1518 FILLER_0_12_153
*1519 FILLER_0_12_165
*1520 FILLER_0_12_177
*1521 FILLER_0_12_189
*1522 FILLER_0_12_195
*1523 FILLER_0_12_197
*1524 FILLER_0_12_209
*1525 FILLER_0_12_221
*1526 FILLER_0_12_233
*1527 FILLER_0_12_245
*1528 FILLER_0_12_251
*1529 FILLER_0_12_253
*1530 FILLER_0_12_265
*1531 FILLER_0_12_27
*1532 FILLER_0_12_273
*1533 FILLER_0_12_282
*1534 FILLER_0_12_29
*1535 FILLER_0_12_294
*1536 FILLER_0_12_3
*1537 FILLER_0_12_306
*1538 FILLER_0_12_309
*1539 FILLER_0_12_321
*1540 FILLER_0_12_333
*1541 FILLER_0_12_345
*1542 FILLER_0_12_357
*1543 FILLER_0_12_363
*1544 FILLER_0_12_365
*1545 FILLER_0_12_377
*1546 FILLER_0_12_385
*1547 FILLER_0_12_395
*1548 FILLER_0_12_41
*1549 FILLER_0_12_416
*1550 FILLER_0_12_428
*1551 FILLER_0_12_463
*1552 FILLER_0_12_475
*1553 FILLER_0_12_477
*1554 FILLER_0_12_489
*1555 FILLER_0_12_501
*1556 FILLER_0_12_513
*1557 FILLER_0_12_525
*1558 FILLER_0_12_53
*1559 FILLER_0_12_531
*1560 FILLER_0_12_533
*1561 FILLER_0_12_545
*1562 FILLER_0_12_557
*1563 FILLER_0_12_569
*1564 FILLER_0_12_581
*1565 FILLER_0_12_587
*1566 FILLER_0_12_589
*1567 FILLER_0_12_601
*1568 FILLER_0_12_613
*1569 FILLER_0_12_65
*1570 FILLER_0_12_77
*1571 FILLER_0_12_83
*1572 FILLER_0_12_85
*1573 FILLER_0_12_97
*1574 FILLER_0_13_105
*1575 FILLER_0_13_111
*1576 FILLER_0_13_113
*1577 FILLER_0_13_125
*1578 FILLER_0_13_137
*1579 FILLER_0_13_149
*1580 FILLER_0_13_15
*1581 FILLER_0_13_161
*1582 FILLER_0_13_167
*1583 FILLER_0_13_169
*1584 FILLER_0_13_181
*1585 FILLER_0_13_193
*1586 FILLER_0_13_205
*1587 FILLER_0_13_217
*1588 FILLER_0_13_223
*1589 FILLER_0_13_225
*1590 FILLER_0_13_237
*1591 FILLER_0_13_249
*1592 FILLER_0_13_261
*1593 FILLER_0_13_27
*1594 FILLER_0_13_273
*1595 FILLER_0_13_279
*1596 FILLER_0_13_281
*1597 FILLER_0_13_293
*1598 FILLER_0_13_3
*1599 FILLER_0_13_305
*1600 FILLER_0_13_317
*1601 FILLER_0_13_329
*1602 FILLER_0_13_335
*1603 FILLER_0_13_337
*1604 FILLER_0_13_349
*1605 FILLER_0_13_361
*1606 FILLER_0_13_373
*1607 FILLER_0_13_384
*1608 FILLER_0_13_39
*1609 FILLER_0_13_393
*1610 FILLER_0_13_405
*1611 FILLER_0_13_409
*1612 FILLER_0_13_418
*1613 FILLER_0_13_430
*1614 FILLER_0_13_442
*1615 FILLER_0_13_449
*1616 FILLER_0_13_461
*1617 FILLER_0_13_473
*1618 FILLER_0_13_485
*1619 FILLER_0_13_497
*1620 FILLER_0_13_503
*1621 FILLER_0_13_505
*1622 FILLER_0_13_51
*1623 FILLER_0_13_517
*1624 FILLER_0_13_529
*1625 FILLER_0_13_541
*1626 FILLER_0_13_55
*1627 FILLER_0_13_553
*1628 FILLER_0_13_559
*1629 FILLER_0_13_561
*1630 FILLER_0_13_57
*1631 FILLER_0_13_573
*1632 FILLER_0_13_585
*1633 FILLER_0_13_597
*1634 FILLER_0_13_609
*1635 FILLER_0_13_615
*1636 FILLER_0_13_617
*1637 FILLER_0_13_69
*1638 FILLER_0_13_81
*1639 FILLER_0_13_93
*1640 FILLER_0_14_109
*1641 FILLER_0_14_121
*1642 FILLER_0_14_129
*1643 FILLER_0_14_138
*1644 FILLER_0_14_141
*1645 FILLER_0_14_15
*1646 FILLER_0_14_153
*1647 FILLER_0_14_165
*1648 FILLER_0_14_176
*1649 FILLER_0_14_183
*1650 FILLER_0_14_195
*1651 FILLER_0_14_197
*1652 FILLER_0_14_225
*1653 FILLER_0_14_234
*1654 FILLER_0_14_248
*1655 FILLER_0_14_253
*1656 FILLER_0_14_265
*1657 FILLER_0_14_27
*1658 FILLER_0_14_288
*1659 FILLER_0_14_29
*1660 FILLER_0_14_3
*1661 FILLER_0_14_300
*1662 FILLER_0_14_309
*1663 FILLER_0_14_321
*1664 FILLER_0_14_333
*1665 FILLER_0_14_345
*1666 FILLER_0_14_357
*1667 FILLER_0_14_363
*1668 FILLER_0_14_380
*1669 FILLER_0_14_392
*1670 FILLER_0_14_404
*1671 FILLER_0_14_41
*1672 FILLER_0_14_421
*1673 FILLER_0_14_433
*1674 FILLER_0_14_445
*1675 FILLER_0_14_453
*1676 FILLER_0_14_464
*1677 FILLER_0_14_477
*1678 FILLER_0_14_489
*1679 FILLER_0_14_501
*1680 FILLER_0_14_513
*1681 FILLER_0_14_525
*1682 FILLER_0_14_53
*1683 FILLER_0_14_531
*1684 FILLER_0_14_533
*1685 FILLER_0_14_545
*1686 FILLER_0_14_557
*1687 FILLER_0_14_569
*1688 FILLER_0_14_581
*1689 FILLER_0_14_587
*1690 FILLER_0_14_589
*1691 FILLER_0_14_601
*1692 FILLER_0_14_613
*1693 FILLER_0_14_65
*1694 FILLER_0_14_77
*1695 FILLER_0_14_83
*1696 FILLER_0_14_85
*1697 FILLER_0_14_97
*1698 FILLER_0_15_105
*1699 FILLER_0_15_111
*1700 FILLER_0_15_113
*1701 FILLER_0_15_125
*1702 FILLER_0_15_15
*1703 FILLER_0_15_167
*1704 FILLER_0_15_169
*1705 FILLER_0_15_233
*1706 FILLER_0_15_237