*SPEF "ieee 1481-1999"
*DESIGN "netlist_1"
*DATE "22:17:52 Thursday August 15, 2024"
*VENDOR "The OpenROAD Project"
*PROGRAM "OpenROAD"
*VERSION "d423155d69de7f683a23f6916ead418a615ad4ad"
*DESIGN_FLOW "NAME_SCOPE LOCAL" "PIN_CAP NONE"
*DIVIDER /
*DELIMITER :
*BUS_DELIMITER []
*T_UNIT 1 NS
*C_UNIT 1 PF
*R_UNIT 1 OHM
*L_UNIT 1 HENRY

*NAME_MAP
*3 clk
*4 in0
*5 in1
*6 in10
*7 in11
*8 in12
*9 in13
*10 in14
*11 in15
*12 in16
*13 in17
*14 in18
*15 in19
*16 in2
*17 in20
*18 in21
*19 in22
*20 in23
*21 in24
*22 in25
*23 in26
*24 in27
*25 in28
*26 in29
*27 in3
*28 in30
*29 in31
*30 in32
*31 in33
*32 in34
*33 in35
*34 in36
*35 in37
*36 in38
*37 in39
*38 in4
*39 in40
*40 in41
*41 in42
*42 in43
*43 in44
*44 in45
*45 in46
*46 in47
*47 in48
*48 in49
*49 in5
*50 in50
*51 in51
*52 in52
*53 in53
*54 in54
*55 in55
*56 in56
*57 in57
*58 in58
*59 in59
*60 in6
*61 in60
*62 in61
*63 in62
*64 in63
*65 in64
*66 in65
*67 in66
*68 in67
*69 in68
*70 in69
*71 in7
*72 in70
*73 in71
*74 in72
*75 in73
*76 in74
*77 in75
*78 in76
*79 in77
*80 in78
*81 in79
*82 in8
*83 in80
*84 in81
*85 in82
*86 in83
*87 in84
*88 in85
*89 in86
*90 in87
*91 in88
*92 in89
*93 in9
*94 in90
*95 in91
*96 in92
*97 in93
*98 in94
*99 in95
*100 in96
*101 in97
*102 in98
*103 in99
*104 out0
*105 out1
*106 out10
*107 out11
*108 out12
*109 out13
*110 out14
*111 out15
*112 out16
*113 out17
*114 out18
*115 out19
*116 out2
*117 out20
*118 out21
*119 out22
*120 out23
*121 out24
*122 out25
*123 out26
*124 out27
*125 out28
*126 out29
*127 out3
*128 out30
*129 out31
*130 out32
*131 out33
*132 out34
*133 out35
*134 out36
*135 out37
*136 out38
*137 out39
*138 out4
*139 out40
*140 out41
*141 out42
*142 out43
*143 out44
*144 out45
*145 out46
*146 out47
*147 out48
*148 out49
*149 out5
*150 out50
*151 out51
*152 out52
*153 out53
*154 out54
*155 out55
*156 out56
*157 out57
*158 out58
*159 out59
*160 out6
*161 out60
*162 out61
*163 out62
*164 out63
*165 out64
*166 out65
*167 out66
*168 out67
*169 out68
*170 out69
*171 out7
*172 out70
*173 out71
*174 out72
*175 out73
*176 out74
*177 out75
*178 out76
*179 out77
*180 out78
*181 out79
*182 out8
*183 out80
*184 out81
*185 out82
*186 out83
*187 out84
*188 out85
*189 out86
*190 out87
*191 out88
*192 out89
*193 out9
*194 out90
*195 out91
*196 out92
*197 out93
*198 out94
*199 out95
*200 out96
*201 out97
*202 out98
*203 out99
*204 rst
*205 clknet_0_clk
*206 clknet_0_net100
*207 clknet_0_net1000
*208 clknet_0_net1002
*209 clknet_0_net1003
*210 clknet_0_net102
*211 clknet_0_net1022
*212 clknet_0_net103
*213 clknet_0_net104
*214 clknet_0_net112
*215 clknet_0_net113
*216 clknet_0_net117
*217 clknet_0_net164
*218 clknet_0_net181
*219 clknet_0_net183
*220 clknet_0_net185
*221 clknet_0_net189
*222 clknet_0_net191
*223 clknet_0_net193
*224 clknet_0_net197
*225 clknet_0_net202
*226 clknet_0_net206
*227 clknet_0_net211
*228 clknet_0_net214
*229 clknet_0_net215
*230 clknet_0_net217
*231 clknet_0_net223
*232 clknet_0_net225
*233 clknet_0_net232
*234 clknet_0_net233
*235 clknet_0_net241
*236 clknet_0_net255
*237 clknet_0_net256
*238 clknet_0_net257
*239 clknet_0_net261
*240 clknet_0_net269
*241 clknet_0_net277
*242 clknet_0_net279
*243 clknet_0_net287
*244 clknet_0_net290
*245 clknet_0_net291
*246 clknet_0_net296
*247 clknet_0_net301
*248 clknet_0_net324
*249 clknet_0_net325
*250 clknet_0_net328
*251 clknet_0_net331
*252 clknet_0_net332
*253 clknet_0_net340
*254 clknet_0_net341
*255 clknet_0_net346
*256 clknet_0_net361
*257 clknet_0_net365
*258 clknet_0_net387
*259 clknet_0_net389
*260 clknet_0_net390
*261 clknet_0_net391
*262 clknet_0_net393
*263 clknet_0_net394
*264 clknet_0_net396
*265 clknet_0_net398
*266 clknet_0_net400
*267 clknet_0_net404
*268 clknet_0_net406
*269 clknet_0_net425
*270 clknet_0_net430
*271 clknet_0_net431
*272 clknet_0_net435
*273 clknet_0_net439
*274 clknet_0_net456
*275 clknet_0_net458
*276 clknet_0_net460
*277 clknet_0_net462
*278 clknet_0_net464
*279 clknet_0_net488
*280 clknet_0_net493
*281 clknet_0_net503
*282 clknet_0_net504
*283 clknet_0_net505
*284 clknet_0_net506
*285 clknet_0_net513
*286 clknet_0_net516
*287 clknet_0_net519
*288 clknet_0_net523
*289 clknet_0_net525
*290 clknet_0_net529
*291 clknet_0_net539
*292 clknet_0_net564
*293 clknet_0_net635
*294 clknet_0_net637
*295 clknet_0_net651
*296 clknet_0_net681
*297 clknet_0_net703
*298 clknet_0_net704
*299 clknet_0_net705
*300 clknet_0_net724
*301 clknet_0_net725
*302 clknet_0_net726
*303 clknet_0_net743
*304 clknet_0_net744
*305 clknet_0_net745
*306 clknet_0_net764
*307 clknet_0_net765
*308 clknet_0_net766
*309 clknet_0_net782
*310 clknet_0_net783
*311 clknet_0_net784
*312 clknet_0_net800
*313 clknet_0_net801
*314 clknet_0_net802
*315 clknet_0_net818
*316 clknet_0_net819
*317 clknet_0_net82
*318 clknet_0_net820
*319 clknet_0_net83
*320 clknet_0_net838
*321 clknet_0_net839
*322 clknet_0_net840
*323 clknet_0_net858
*324 clknet_0_net859
*325 clknet_0_net860
*326 clknet_0_net88
*327 clknet_0_net969
*328 clknet_0_net970
*329 clknet_0_net976
*330 clknet_0_net979
*331 clknet_0_net987
*332 clknet_0_net990
*333 clknet_0_net992
*334 clknet_0_net996
*335 clknet_0_net999
*336 clknet_1_0__leaf_net100
*337 clknet_1_0__leaf_net1000
*338 clknet_1_0__leaf_net1002
*339 clknet_1_0__leaf_net1003
*340 clknet_1_0__leaf_net102
*341 clknet_1_0__leaf_net1022
*342 clknet_1_0__leaf_net103
*343 clknet_1_0__leaf_net104
*344 clknet_1_0__leaf_net112
*345 clknet_1_0__leaf_net113
*346 clknet_1_0__leaf_net117
*347 clknet_1_0__leaf_net164
*348 clknet_1_0__leaf_net181
*349 clknet_1_0__leaf_net183
*350 clknet_1_0__leaf_net185
*351 clknet_1_0__leaf_net189
*352 clknet_1_0__leaf_net191
*353 clknet_1_0__leaf_net193
*354 clknet_1_0__leaf_net197
*355 clknet_1_0__leaf_net202
*356 clknet_1_0__leaf_net206
*357 clknet_1_0__leaf_net211
*358 clknet_1_0__leaf_net214
*359 clknet_1_0__leaf_net215
*360 clknet_1_0__leaf_net217
*361 clknet_1_0__leaf_net223
*362 clknet_1_0__leaf_net225
*363 clknet_1_0__leaf_net232
*364 clknet_1_0__leaf_net233
*365 clknet_1_0__leaf_net241
*366 clknet_1_0__leaf_net255
*367 clknet_1_0__leaf_net256
*368 clknet_1_0__leaf_net257
*369 clknet_1_0__leaf_net261
*370 clknet_1_0__leaf_net269
*371 clknet_1_0__leaf_net277
*372 clknet_1_0__leaf_net279
*373 clknet_1_0__leaf_net287
*374 clknet_1_0__leaf_net290
*375 clknet_1_0__leaf_net291
*376 clknet_1_0__leaf_net296
*377 clknet_1_0__leaf_net301
*378 clknet_1_0__leaf_net324
*379 clknet_1_0__leaf_net325
*380 clknet_1_0__leaf_net328
*381 clknet_1_0__leaf_net331
*382 clknet_1_0__leaf_net332
*383 clknet_1_0__leaf_net340
*384 clknet_1_0__leaf_net341
*385 clknet_1_0__leaf_net346
*386 clknet_1_0__leaf_net361
*387 clknet_1_0__leaf_net365
*388 clknet_1_0__leaf_net387
*389 clknet_1_0__leaf_net389
*390 clknet_1_0__leaf_net390
*391 clknet_1_0__leaf_net391
*392 clknet_1_0__leaf_net393
*393 clknet_1_0__leaf_net394
*394 clknet_1_0__leaf_net396
*395 clknet_1_0__leaf_net398
*396 clknet_1_0__leaf_net400
*397 clknet_1_0__leaf_net404
*398 clknet_1_0__leaf_net406
*399 clknet_1_0__leaf_net425
*400 clknet_1_0__leaf_net430
*401 clknet_1_0__leaf_net431
*402 clknet_1_0__leaf_net435
*403 clknet_1_0__leaf_net439
*404 clknet_1_0__leaf_net456
*405 clknet_1_0__leaf_net458
*406 clknet_1_0__leaf_net460
*407 clknet_1_0__leaf_net462
*408 clknet_1_0__leaf_net464
*409 clknet_1_0__leaf_net488
*410 clknet_1_0__leaf_net493
*411 clknet_1_0__leaf_net503
*412 clknet_1_0__leaf_net504
*413 clknet_1_0__leaf_net505
*414 clknet_1_0__leaf_net506
*415 clknet_1_0__leaf_net513
*416 clknet_1_0__leaf_net516
*417 clknet_1_0__leaf_net519
*418 clknet_1_0__leaf_net523
*419 clknet_1_0__leaf_net525
*420 clknet_1_0__leaf_net529
*421 clknet_1_0__leaf_net539
*422 clknet_1_0__leaf_net564
*423 clknet_1_0__leaf_net635
*424 clknet_1_0__leaf_net637
*425 clknet_1_0__leaf_net651
*426 clknet_1_0__leaf_net681
*427 clknet_1_0__leaf_net703
*428 clknet_1_0__leaf_net704
*429 clknet_1_0__leaf_net705
*430 clknet_1_0__leaf_net724
*431 clknet_1_0__leaf_net725
*432 clknet_1_0__leaf_net726
*433 clknet_1_0__leaf_net743
*434 clknet_1_0__leaf_net744
*435 clknet_1_0__leaf_net745
*436 clknet_1_0__leaf_net764
*437 clknet_1_0__leaf_net765
*438 clknet_1_0__leaf_net766
*439 clknet_1_0__leaf_net782
*440 clknet_1_0__leaf_net783
*441 clknet_1_0__leaf_net784
*442 clknet_1_0__leaf_net800
*443 clknet_1_0__leaf_net801
*444 clknet_1_0__leaf_net802
*445 clknet_1_0__leaf_net818
*446 clknet_1_0__leaf_net819
*447 clknet_1_0__leaf_net82
*448 clknet_1_0__leaf_net820
*449 clknet_1_0__leaf_net83
*450 clknet_1_0__leaf_net838
*451 clknet_1_0__leaf_net839
*452 clknet_1_0__leaf_net840
*453 clknet_1_0__leaf_net858
*454 clknet_1_0__leaf_net859
*455 clknet_1_0__leaf_net860
*456 clknet_1_0__leaf_net88
*457 clknet_1_0__leaf_net969
*458 clknet_1_0__leaf_net970
*459 clknet_1_0__leaf_net976
*460 clknet_1_0__leaf_net979
*461 clknet_1_0__leaf_net987
*462 clknet_1_0__leaf_net990
*463 clknet_1_0__leaf_net992
*464 clknet_1_0__leaf_net996
*465 clknet_1_0__leaf_net999
*466 clknet_1_1__leaf_net100
*467 clknet_1_1__leaf_net1000
*468 clknet_1_1__leaf_net1002
*469 clknet_1_1__leaf_net1003
*470 clknet_1_1__leaf_net102
*471 clknet_1_1__leaf_net1022
*472 clknet_1_1__leaf_net103
*473 clknet_1_1__leaf_net104
*474 clknet_1_1__leaf_net112
*475 clknet_1_1__leaf_net113
*476 clknet_1_1__leaf_net117
*477 clknet_1_1__leaf_net164
*478 clknet_1_1__leaf_net181
*479 clknet_1_1__leaf_net183
*480 clknet_1_1__leaf_net185
*481 clknet_1_1__leaf_net189
*482 clknet_1_1__leaf_net191
*483 clknet_1_1__leaf_net193
*484 clknet_1_1__leaf_net197
*485 clknet_1_1__leaf_net202
*486 clknet_1_1__leaf_net206
*487 clknet_1_1__leaf_net211
*488 clknet_1_1__leaf_net214
*489 clknet_1_1__leaf_net215
*490 clknet_1_1__leaf_net217
*491 clknet_1_1__leaf_net223
*492 clknet_1_1__leaf_net225
*493 clknet_1_1__leaf_net232
*494 clknet_1_1__leaf_net233
*495 clknet_1_1__leaf_net241
*496 clknet_1_1__leaf_net255
*497 clknet_1_1__leaf_net256
*498 clknet_1_1__leaf_net257
*499 clknet_1_1__leaf_net261
*500 clknet_1_1__leaf_net269
*501 clknet_1_1__leaf_net277
*502 clknet_1_1__leaf_net279
*503 clknet_1_1__leaf_net287
*504 clknet_1_1__leaf_net290
*505 clknet_1_1__leaf_net291
*506 clknet_1_1__leaf_net296
*507 clknet_1_1__leaf_net301
*508 clknet_1_1__leaf_net324
*509 clknet_1_1__leaf_net325
*510 clknet_1_1__leaf_net328
*511 clknet_1_1__leaf_net331
*512 clknet_1_1__leaf_net332
*513 clknet_1_1__leaf_net340
*514 clknet_1_1__leaf_net341
*515 clknet_1_1__leaf_net346
*516 clknet_1_1__leaf_net361
*517 clknet_1_1__leaf_net365
*518 clknet_1_1__leaf_net387
*519 clknet_1_1__leaf_net389
*520 clknet_1_1__leaf_net390
*521 clknet_1_1__leaf_net391
*522 clknet_1_1__leaf_net393
*523 clknet_1_1__leaf_net394
*524 clknet_1_1__leaf_net396
*525 clknet_1_1__leaf_net398
*526 clknet_1_1__leaf_net400
*527 clknet_1_1__leaf_net404
*528 clknet_1_1__leaf_net406
*529 clknet_1_1__leaf_net425
*530 clknet_1_1__leaf_net430
*531 clknet_1_1__leaf_net431
*532 clknet_1_1__leaf_net435
*533 clknet_1_1__leaf_net439
*534 clknet_1_1__leaf_net456
*535 clknet_1_1__leaf_net458
*536 clknet_1_1__leaf_net460
*537 clknet_1_1__leaf_net462
*538 clknet_1_1__leaf_net464
*539 clknet_1_1__leaf_net488
*540 clknet_1_1__leaf_net493
*541 clknet_1_1__leaf_net503
*542 clknet_1_1__leaf_net504
*543 clknet_1_1__leaf_net505
*544 clknet_1_1__leaf_net506
*545 clknet_1_1__leaf_net513
*546 clknet_1_1__leaf_net516
*547 clknet_1_1__leaf_net519
*548 clknet_1_1__leaf_net523
*549 clknet_1_1__leaf_net525
*550 clknet_1_1__leaf_net529
*551 clknet_1_1__leaf_net539
*552 clknet_1_1__leaf_net564
*553 clknet_1_1__leaf_net635
*554 clknet_1_1__leaf_net637
*555 clknet_1_1__leaf_net651
*556 clknet_1_1__leaf_net681
*557 clknet_1_1__leaf_net703
*558 clknet_1_1__leaf_net704
*559 clknet_1_1__leaf_net705
*560 clknet_1_1__leaf_net724
*561 clknet_1_1__leaf_net725
*562 clknet_1_1__leaf_net726
*563 clknet_1_1__leaf_net743
*564 clknet_1_1__leaf_net744
*565 clknet_1_1__leaf_net745
*566 clknet_1_1__leaf_net764
*567 clknet_1_1__leaf_net765
*568 clknet_1_1__leaf_net766
*569 clknet_1_1__leaf_net782
*570 clknet_1_1__leaf_net783
*571 clknet_1_1__leaf_net784
*572 clknet_1_1__leaf_net800
*573 clknet_1_1__leaf_net801
*574 clknet_1_1__leaf_net802
*575 clknet_1_1__leaf_net818
*576 clknet_1_1__leaf_net819
*577 clknet_1_1__leaf_net82
*578 clknet_1_1__leaf_net820
*579 clknet_1_1__leaf_net83
*580 clknet_1_1__leaf_net838
*581 clknet_1_1__leaf_net839
*582 clknet_1_1__leaf_net840
*583 clknet_1_1__leaf_net858
*584 clknet_1_1__leaf_net859
*585 clknet_1_1__leaf_net860
*586 clknet_1_1__leaf_net88
*587 clknet_1_1__leaf_net969
*588 clknet_1_1__leaf_net970
*589 clknet_1_1__leaf_net976
*590 clknet_1_1__leaf_net979
*591 clknet_1_1__leaf_net987
*592 clknet_1_1__leaf_net990
*593 clknet_1_1__leaf_net992
*594 clknet_1_1__leaf_net996
*595 clknet_1_1__leaf_net999
*596 clknet_2_0__leaf_clk
*597 clknet_2_1__leaf_clk
*598 clknet_2_2__leaf_clk
*599 clknet_2_3__leaf_clk
*600 clknet_leaf_0_clk
*601 clknet_leaf_10_clk
*602 clknet_leaf_11_clk
*603 clknet_leaf_12_clk
*604 clknet_leaf_13_clk
*605 clknet_leaf_14_clk
*606 clknet_leaf_15_clk
*607 clknet_leaf_16_clk
*608 clknet_leaf_17_clk
*609 clknet_leaf_18_clk
*610 clknet_leaf_19_clk
*611 clknet_leaf_1_clk
*612 clknet_leaf_20_clk
*613 clknet_leaf_21_clk
*614 clknet_leaf_22_clk
*615 clknet_leaf_23_clk
*616 clknet_leaf_24_clk
*617 clknet_leaf_25_clk
*618 clknet_leaf_26_clk
*619 clknet_leaf_27_clk
*620 clknet_leaf_28_clk
*621 clknet_leaf_29_clk
*622 clknet_leaf_2_clk
*623 clknet_leaf_30_clk
*624 clknet_leaf_31_clk
*625 clknet_leaf_32_clk
*626 clknet_leaf_33_clk
*627 clknet_leaf_34_clk
*628 clknet_leaf_35_clk
*629 clknet_leaf_36_clk
*630 clknet_leaf_37_clk
*631 clknet_leaf_38_clk
*632 clknet_leaf_39_clk
*633 clknet_leaf_3_clk
*634 clknet_leaf_40_clk
*635 clknet_leaf_41_clk
*636 clknet_leaf_42_clk
*637 clknet_leaf_43_clk
*638 clknet_leaf_44_clk
*639 clknet_leaf_45_clk
*640 clknet_leaf_46_clk
*641 clknet_leaf_47_clk
*642 clknet_leaf_48_clk
*643 clknet_leaf_49_clk
*644 clknet_leaf_4_clk
*645 clknet_leaf_50_clk
*646 clknet_leaf_5_clk
*647 clknet_leaf_7_clk
*648 clknet_leaf_8_clk
*649 clknet_leaf_9_clk
*650 net0
*651 net1
*652 net10
*653 net100
*654 net1000
*655 net1001
*656 net1002
*657 net1003
*658 net1004
*659 net1005
*660 net1006
*661 net1007
*662 net1008
*663 net1009
*664 net101
*665 net1010
*666 net1011
*667 net1012
*668 net1013
*669 net1014
*670 net1015
*671 net1016
*672 net1017
*673 net1018
*674 net1019
*675 net102
*676 net1020
*677 net1021
*678 net1022
*679 net1023
*680 net1024
*681 net1025
*682 net1026
*683 net1027
*684 net1028
*685 net1029
*686 net103
*687 net1030
*688 net1031
*689 net1032
*690 net1033
*691 net1034
*692 net1035
*693 net1036
*694 net1037
*695 net1038
*696 net1039
*697 net104
*698 net1040
*699 net1041
*700 net1042
*701 net1043
*702 net1044
*703 net1045
*704 net1046
*705 net1047
*706 net1048
*707 net1049
*708 net105
*709 net1050
*710 net1051
*711 net1052
*712 net1053
*713 net1054
*714 net1055
*715 net1056
*716 net1057
*717 net1058
*718 net1059
*719 net106
*720 net1060
*721 net1061
*722 net1062
*723 net1063
*724 net1064
*725 net1065
*726 net1066
*727 net1067
*728 net1068
*729 net1069
*730 net107
*731 net1070
*732 net1071
*733 net1072
*734 net1073
*735 net1074
*736 net1075
*737 net1076
*738 net1077
*739 net1078
*740 net1079
*741 net108
*742 net1080
*743 net1081
*744 net1082
*745 net1083
*746 net1084
*747 net1085
*748 net1086
*749 net1087
*750 net1088
*751 net1089
*752 net109
*753 net1090
*754 net1091
*755 net1092
*756 net1093
*757 net1094
*758 net1095
*759 net1096
*760 net1097
*761 net1098
*762 net1099
*763 net11
*764 net110
*765 net1100
*766 net1101
*767 net1102
*768 net1103
*769 net1104
*770 net1105
*771 net1106
*772 net1107
*773 net1108
*774 net1109
*775 net111
*776 net1110
*777 net1111
*778 net1112
*779 net1113
*780 net1114
*781 net1115
*782 net1116
*783 net1117
*784 net1118
*785 net1119
*786 net112
*787 net1120
*788 net1121
*789 net1122
*790 net1123
*791 net1124
*792 net1125
*793 net1126
*794 net1127
*795 net1128
*796 net1129
*797 net113
*798 net1130
*799 net1131
*800 net1132
*801 net1133
*802 net1134
*803 net1135
*804 net1136
*805 net1137
*806 net1138
*807 net1139
*808 net114
*809 net1140
*810 net1141
*811 net1142
*812 net1143
*813 net1144
*814 net1145
*815 net1146
*816 net1147
*817 net1148
*818 net1149
*819 net115
*820 net1150
*821 net1151
*822 net1152
*823 net1153
*824 net1154
*825 net1155
*826 net1156
*827 net1157
*828 net1158
*829 net1159
*830 net116
*831 net1160
*832 net1161
*833 net1162
*834 net1163
*835 net1164
*836 net1165
*837 net1166
*838 net1167
*839 net1168
*840 net1169
*841 net117
*842 net1170
*843 net1171
*844 net1172
*845 net1173
*846 net1174
*847 net1175
*848 net118
*849 net119
*850 net12
*851 net120
*852 net121
*853 net122
*854 net123
*855 net124
*856 net125
*857 net126
*858 net127
*859 net128
*860 net129
*861 net13
*862 net130
*863 net131
*864 net132
*865 net133
*866 net134
*867 net135
*868 net136
*869 net137
*870 net138
*871 net139
*872 net14
*873 net140
*874 net141
*875 net142
*876 net143
*877 net144
*878 net145
*879 net146
*880 net147
*881 net148
*882 net149
*883 net15
*884 net150
*885 net151
*886 net152
*887 net153
*888 net154
*889 net155
*890 net156
*891 net157
*892 net158
*893 net159
*894 net16
*895 net160
*896 net161
*897 net162
*898 net163
*899 net164
*900 net165
*901 net166
*902 net167
*903 net168
*904 net169
*905 net17
*906 net170
*907 net171
*908 net172
*909 net173
*910 net174
*911 net175
*912 net176
*913 net177
*914 net178
*915 net179
*916 net18
*917 net180
*918 net181
*919 net182
*920 net183
*921 net184
*922 net185
*923 net186
*924 net187
*925 net188
*926 net189
*927 net19
*928 net190
*929 net191
*930 net192
*931 net193
*932 net194
*933 net195
*934 net196
*935 net197
*936 net198
*937 net199
*938 net2
*939 net20
*940 net200
*941 net201
*942 net202
*943 net203
*944 net204
*945 net205
*946 net206
*947 net207
*948 net208
*949 net209
*950 net21
*951 net210
*952 net211
*953 net212
*954 net213
*955 net214
*956 net215
*957 net216
*958 net217
*959 net218
*960 net219
*961 net22
*962 net220
*963 net221
*964 net222
*965 net223
*966 net224
*967 net225
*968 net226
*969 net227
*970 net228
*971 net229
*972 net23
*973 net230
*974 net231
*975 net232
*976 net233
*977 net234
*978 net235
*979 net236
*980 net237
*981 net238
*982 net239
*983 net24
*984 net240
*985 net241
*986 net242
*987 net243
*988 net244
*989 net245
*990 net246
*991 net247
*992 net248
*993 net249
*994 net25
*995 net250
*996 net251
*997 net252
*998 net253
*999 net254
*1000 net255
*1001 net256
*1002 net257
*1003 net258
*1004 net259
*1005 net26
*1006 net260
*1007 net261
*1008 net262
*1009 net263
*1010 net264
*1011 net265
*1012 net266
*1013 net267
*1014 net268
*1015 net269
*1016 net27
*1017 net270
*1018 net271
*1019 net272
*1020 net273
*1021 net274
*1022 net275
*1023 net276
*1024 net277
*1025 net278
*1026 net279
*1027 net28
*1028 net280
*1029 net281
*1030 net282
*1031 net283
*1032 net284
*1033 net285
*1034 net286
*1035 net287
*1036 net288
*1037 net289
*1038 net29
*1039 net290
*1040 net291
*1041 net292
*1042 net293
*1043 net294
*1044 net295
*1045 net296
*1046 net297
*1047 net298
*1048 net299
*1049 net3
*1050 net30
*1051 net300
*1052 net301
*1053 net302
*1054 net303
*1055 net304
*1056 net305
*1057 net306
*1058 net307
*1059 net308
*1060 net309
*1061 net31
*1062 net310
*1063 net311
*1064 net312
*1065 net313
*1066 net314
*1067 net315
*1068 net316
*1069 net317
*1070 net318
*1071 net319
*1072 net32
*1073 net320
*1074 net321
*1075 net322
*1076 net323
*1077 net324
*1078 net325
*1079 net326
*1080 net327
*1081 net328
*1082 net329
*1083 net33
*1084 net330
*1085 net331
*1086 net332
*1087 net333
*1088 net334
*1089 net335
*1090 net336
*1091 net337
*1092 net338
*1093 net339
*1094 net34
*1095 net340
*1096 net341
*1097 net342
*1098 net343
*1099 net344
*1100 net345
*1101 net346
*1102 net347
*1103 net348
*1104 net349
*1105 net35
*1106 net350
*1107 net351
*1108 net352
*1109 net353
*1110 net354
*1111 net355
*1112 net356
*1113 net357
*1114 net358
*1115 net359
*1116 net36
*1117 net360
*1118 net361
*1119 net362
*1120 net363
*1121 net364
*1122 net365
*1123 net366
*1124 net367
*1125 net368
*1126 net369
*1127 net37
*1128 net370
*1129 net371
*1130 net372
*1131 net373
*1132 net374
*1133 net375
*1134 net376
*1135 net377
*1136 net378
*1137 net379
*1138 net38
*1139 net380
*1140 net381
*1141 net382
*1142 net383
*1143 net384
*1144 net385
*1145 net386
*1146 net387
*1147 net388
*1148 net389
*1149 net39
*1150 net390
*1151 net391
*1152 net392
*1153 net393
*1154 net394
*1155 net395
*1156 net396
*1157 net397
*1158 net398
*1159 net399
*1160 net4
*1161 net40
*1162 net400
*1163 net401
*1164 net402
*1165 net403
*1166 net404
*1167 net405
*1168 net406
*1169 net407
*1170 net408
*1171 net409
*1172 net41
*1173 net410
*1174 net411
*1175 net412
*1176 net413
*1177 net414
*1178 net415
*1179 net416
*1180 net417
*1181 net418
*1182 net419
*1183 net42
*1184 net420
*1185 net421
*1186 net422
*1187 net423
*1188 net424
*1189 net425
*1190 net426
*1191 net427
*1192 net428
*1193 net429
*1194 net43
*1195 net430
*1196 net431
*1197 net432
*1198 net433
*1199 net434
*1200 net435
*1201 net436
*1202 net437
*1203 net438
*1204 net439
*1205 net44
*1206 net440
*1207 net441
*1208 net442
*1209 net443
*1210 net444
*1211 net445
*1212 net446
*1213 net447
*1214 net448
*1215 net449
*1216 net45
*1217 net450
*1218 net451
*1219 net452
*1220 net453
*1221 net454
*1222 net455
*1223 net456
*1224 net457
*1225 net458
*1226 net459
*1227 net46
*1228 net460
*1229 net461
*1230 net462
*1231 net463
*1232 net464
*1233 net465
*1234 net466
*1235 net467
*1236 net468
*1237 net469
*1238 net47
*1239 net470
*1240 net471
*1241 net472
*1242 net473
*1243 net474
*1244 net475
*1245 net476
*1246 net477
*1247 net478
*1248 net479
*1249 net48
*1250 net480
*1251 net481
*1252 net482
*1253 net483
*1254 net484
*1255 net485
*1256 net486
*1257 net487
*1258 net488
*1259 net489
*1260 net49
*1261 net490
*1262 net491
*1263 net492
*1264 net493
*1265 net494
*1266 net495
*1267 net496
*1268 net497
*1269 net498
*1270 net499
*1271 net5
*1272 net50
*1273 net500
*1274 net501
*1275 net502
*1276 net503
*1277 net504
*1278 net505
*1279 net506
*1280 net507
*1281 net508
*1282 net509
*1283 net51
*1284 net510
*1285 net511
*1286 net512
*1287 net513
*1288 net514
*1289 net515
*1290 net516
*1291 net517
*1292 net518
*1293 net519
*1294 net52
*1295 net520
*1296 net521
*1297 net522
*1298 net523
*1299 net524
*1300 net525
*1301 net526
*1302 net527
*1303 net528
*1304 net529
*1305 net53
*1306 net530
*1307 net531
*1308 net532
*1309 net533
*1310 net534
*1311 net535
*1312 net536
*1313 net537
*1314 net538
*1315 net539
*1316 net54
*1317 net540
*1318 net541
*1319 net542
*1320 net543
*1321 net544
*1322 net545
*1323 net546
*1324 net547
*1325 net548
*1326 net549
*1327 net55
*1328 net550
*1329 net551
*1330 net552
*1331 net553
*1332 net554
*1333 net555
*1334 net556
*1335 net557
*1336 net558
*1337 net559
*1338 net56
*1339 net560
*1340 net561
*1341 net562
*1342 net563
*1343 net564
*1344 net565
*1345 net566
*1346 net567
*1347 net568
*1348 net569
*1349 net57
*1350 net570
*1351 net571
*1352 net572
*1353 net573
*1354 net574
*1355 net575
*1356 net576
*1357 net577
*1358 net578
*1359 net579
*1360 net58
*1361 net580
*1362 net581
*1363 net582
*1364 net583
*1365 net584
*1366 net585
*1367 net586
*1368 net587
*1369 net588
*1370 net589
*1371 net59
*1372 net590
*1373 net591
*1374 net592
*1375 net593
*1376 net594
*1377 net595
*1378 net596
*1379 net597
*1380 net598
*1381 net599
*1382 net6
*1383 net60
*1384 net600
*1385 net601
*1386 net602
*1387 net603
*1388 net604
*1389 net605
*1390 net606
*1391 net607
*1392 net608
*1393 net609
*1394 net61
*1395 net610
*1396 net611
*1397 net612
*1398 net613
*1399 net614
*1400 net615
*1401 net616
*1402 net617
*1403 net618
*1404 net619
*1405 net62
*1406 net620
*1407 net621
*1408 net622
*1409 net623
*1410 net624
*1411 net625
*1412 net626
*1413 net627
*1414 net628
*1415 net629
*1416 net63
*1417 net630
*1418 net631
*1419 net632
*1420 net633
*1421 net634
*1422 net635
*1423 net636
*1424 net637
*1425 net638
*1426 net639
*1427 net64
*1428 net640
*1429 net641
*1430 net642
*1431 net643
*1432 net644
*1433 net645
*1434 net646
*1435 net647
*1436 net648
*1437 net649
*1438 net65
*1439 net650
*1440 net651
*1441 net652
*1442 net653
*1443 net654
*1444 net655
*1445 net656
*1446 net657
*1447 net658
*1448 net659
*1449 net66
*1450 net660
*1451 net661
*1452 net662
*1453 net663
*1454 net664
*1455 net665
*1456 net666
*1457 net667
*1458 net668
*1459 net669
*1460 net67
*1461 net670
*1462 net671
*1463 net672
*1464 net673
*1465 net674
*1466 net675
*1467 net676
*1468 net677
*1469 net678
*1470 net679
*1471 net68
*1472 net680
*1473 net681
*1474 net682
*1475 net683
*1476 net684
*1477 net685
*1478 net686
*1479 net687
*1480 net688
*1481 net689
*1482 net69
*1483 net690
*1484 net691
*1485 net692
*1486 net693
*1487 net694
*1488 net695
*1489 net696
*1490 net697
*1491 net698
*1492 net699
*1493 net7
*1494 net70
*1495 net700
*1496 net701
*1497 net702
*1498 net703
*1499 net704
*1500 net705
*1501 net706
*1502 net707
*1503 net708
*1504 net709
*1505 net71
*1506 net710
*1507 net711
*1508 net712
*1509 net713
*1510 net714
*1511 net715
*1512 net716
*1513 net717
*1514 net718
*1515 net719
*1516 net72
*1517 net720
*1518 net721
*1519 net722
*1520 net723
*1521 net724
*1522 net725
*1523 net726
*1524 net727
*1525 net728
*1526 net729
*1527 net73
*1528 net730
*1529 net731
*1530 net732
*1531 net733
*1532 net734
*1533 net735
*1534 net736
*1535 net737
*1536 net738
*1537 net739
*1538 net74
*1539 net740
*1540 net741
*1541 net742
*1542 net743
*1543 net744
*1544 net745
*1545 net746
*1546 net747
*1547 net748
*1548 net749
*1549 net75
*1550 net750
*1551 net751
*1552 net752
*1553 net753
*1554 net754
*1555 net755
*1556 net756
*1557 net757
*1558 net758
*1559 net759
*1560 net76
*1561 net760
*1562 net761
*1563 net762
*1564 net763
*1565 net764
*1566 net765
*1567 net766
*1568 net767
*1569 net768
*1570 net769
*1571 net77
*1572 net770
*1573 net771
*1574 net772
*1575 net773
*1576 net774
*1577 net775
*1578 net776
*1579 net777
*1580 net778
*1581 net779
*1582 net78
*1583 net780
*1584 net781
*1585 net782
*1586 net783
*1587 net784
*1588 net785
*1589 net786
*1590 net787
*1591 net788
*1592 net789
*1593 net79
*1594 net790
*1595 net791
*1596 net792
*1597 net793
*1598 net794
*1599 net795
*1600 net796
*1601 net797
*1602 net798
*1603 net799
*1604 net8
*1605 net80
*1606 net800
*1607 net801
*1608 net802
*1609 net803
*1610 net804
*1611 net805
*1612 net806
*1613 net807
*1614 net808
*1615 net809
*1616 net81
*1617 net810
*1618 net811
*1619 net812
*1620 net813
*1621 net814
*1622 net815
*1623 net816
*1624 net817
*1625 net818
*1626 net819
*1627 net82
*1628 net820
*1629 net821
*1630 net822
*1631 net823
*1632 net824
*1633 net825
*1634 net826
*1635 net827
*1636 net828
*1637 net829
*1638 net83
*1639 net830
*1640 net831
*1641 net832
*1642 net833
*1643 net834
*1644 net835
*1645 net836
*1646 net837
*1647 net838
*1648 net839
*1649 net84
*1650 net840
*1651 net841
*1652 net842
*1653 net843
*1654 net844
*1655 net845
*1656 net846
*1657 net847
*1658 net848
*1659 net849
*1660 net85
*1661 net850
*1662 net851
*1663 net852
*1664 net853
*1665 net854
*1666 net855
*1667 net856
*1668 net857
*1669 net858
*1670 net859
*1671 net86
*1672 net860
*1673 net861
*1674 net862
*1675 net863
*1676 net864
*1677 net865
*1678 net866
*1679 net867
*1680 net868
*1681 net869
*1682 net87
*1683 net870
*1684 net871
*1685 net872
*1686 net873
*1687 net874
*1688 net875
*1689 net876
*1690 net877
*1691 net878
*1692 net879
*1693 net88
*1694 net880
*1695 net881
*1696 net882
*1697 net883
*1698 net884
*1699 net885
*1700 net886
*1701 net887
*1702 net888
*1703 net889
*1704 net89
*1705 net890
*1706 net891
*1707 net892
*1708 net893
*1709 net894
*1710 net895
*1711 net896
*1712 net897
*1713 net898
*1714 net899
*1715 net9
*1716 net90
*1717 net900
*1718 net901
*1719 net902
*1720 net903
*1721 net904
*1722 net905
*1723 net906
*1724 net907
*1725 net908
*1726 net909
*1727 net91
*1728 net910
*1729 net911
*1730 net912
*1731 net913
*1732 net914
*1733 net915
*1734 net916
*1735 net917
*1736 net918
*1737 net919
*1738 net92
*1739 net920
*1740 net921
*1741 net922
*1742 net923
*1743 net924
*1744 net925
*1745 net926
*1746 net927
*1747 net928
*1748 net929
*1749 net93
*1750 net930
*1751 net931
*1752 net932
*1753 net933
*1754 net934
*1755 net935
*1756 net936
*1757 net937
*1758 net938
*1759 net939
*1760 net94
*1761 net940
*1762 net941
*1763 net942
*1764 net943
*1765 net944
*1766 net945
*1767 net946
*1768 net947
*1769 net948
*1770 net949
*1771 net95
*1772 net950
*1773 net951
*1774 net952
*1775 net953
*1776 net954
*1777 net955
*1778 net956
*1779 net957
*1780 net958
*1781 net959
*1782 net96
*1783 net960
*1784 net961
*1785 net962
*1786 net963
*1787 net964
*1788 net965
*1789 net966
*1790 net967
*1791 net968
*1792 net969
*1793 net97
*1794 net970
*1795 net971
*1796 net972
*1797 net973
*1798 net974
*1799 net975
*1800 net976
*1801 net977
*1802 net978
*1803 net979
*1804 net98
*1805 net980
*1806 net981
*1807 net982
*1808 net983
*1809 net984
*1810 net985
*1811 net986
*1812 net987
*1813 net988
*1814 net989
*1815 net99
*1816 net990
*1817 net991
*1818 net992
*1819 net993
*1820 net994
*1821 net995
*1822 net996
*1823 net997
*1824 net998
*1825 net999
*1826 ANTENNA_1
*1827 ANTENNA_2
*1828 ANTENNA_3
*1829 ANTENNA_4
*1830 ANTENNA_c100_A1
*1831 ANTENNA_c100_A3
*1832 ANTENNA_c100_S1
*1833 ANTENNA_c101_A2
*1834 ANTENNA_c101_S0
*1835 ANTENNA_c101_S1
*1836 ANTENNA_c102_A0
*1837 ANTENNA_c102_A1
*1838 ANTENNA_c102_A2
*1839 ANTENNA_c102_X
*1840 ANTENNA_c103_A0
*1841 ANTENNA_c103_A2
*1842 ANTENNA_c103_S0
*1843 ANTENNA_c103_X
*1844 ANTENNA_c104_A1
*1845 ANTENNA_c104_S1
*1846 ANTENNA_c105_A1
*1847 ANTENNA_c105_A3
*1848 ANTENNA_c105_S0
*1849 ANTENNA_c105_S1
*1850 ANTENNA_c105_X
*1851 ANTENNA_c106_A1
*1852 ANTENNA_c106_A2
*1853 ANTENNA_c106_A3
*1854 ANTENNA_c106_S0
*1855 ANTENNA_c106_S1
*1856 ANTENNA_c107_A0
*1857 ANTENNA_c107_A1
*1858 ANTENNA_c107_A3
*1859 ANTENNA_c107_S1
*1860 ANTENNA_c107_X
*1861 ANTENNA_c108_A1
*1862 ANTENNA_c108_A2
*1863 ANTENNA_c108_A3
*1864 ANTENNA_c108_S0
*1865 ANTENNA_c108_S1
*1866 ANTENNA_c109_A1
*1867 ANTENNA_c109_A3
*1868 ANTENNA_c109_S1
*1869 ANTENNA_c110_A2
*1870 ANTENNA_c110_A3
*1871 ANTENNA_c110_S1
*1872 ANTENNA_c111_A1
*1873 ANTENNA_c111_A2
*1874 ANTENNA_c111_A3
*1875 ANTENNA_c111_B1