*SPEF "ieee 1481-1999"
*DESIGN "netlist_1"
*DATE "14:52:46 Friday August 16, 2024"
*VENDOR "The OpenROAD Project"
*PROGRAM "OpenROAD"
*VERSION "d423155d69de7f683a23f6916ead418a615ad4ad"
*DESIGN_FLOW "NAME_SCOPE LOCAL" "PIN_CAP NONE"
*DIVIDER /
*DELIMITER :
*BUS_DELIMITER []
*T_UNIT 1 NS
*C_UNIT 1 PF
*R_UNIT 1 OHM
*L_UNIT 1 HENRY

*NAME_MAP
*3 clk
*4 in0
*5 in1
*6 in10
*7 in11
*8 in12
*9 in13
*10 in14
*11 in15
*12 in16
*13 in17
*14 in18
*15 in19
*16 in2
*17 in20
*18 in21
*19 in22
*20 in23
*21 in24
*22 in25
*23 in26
*24 in27
*25 in28
*26 in29
*27 in3
*28 in30
*29 in31
*30 in32
*31 in33
*32 in34
*33 in35
*34 in36
*35 in37
*36 in38
*37 in39
*38 in4
*39 in40
*40 in41
*41 in42
*42 in43
*43 in44
*44 in45
*45 in46
*46 in47
*47 in48
*48 in49
*49 in5
*50 in50
*51 in51
*52 in52
*53 in53
*54 in54
*55 in55
*56 in56
*57 in57
*58 in58
*59 in59
*60 in6
*61 in60
*62 in61
*63 in7
*64 in8
*65 in9
*66 out0
*67 out1
*68 out10
*69 out11
*70 out12
*71 out13
*72 out14
*73 out15
*74 out16
*75 out17
*76 out18
*77 out19
*78 out2
*79 out20
*80 out21
*81 out22
*82 out23
*83 out24
*84 out25
*85 out26
*86 out27
*87 out28
*88 out29
*89 out3
*90 out30
*91 out31
*92 out32
*93 out33
*94 out34
*95 out35
*96 out36
*97 out37
*98 out38
*99 out39
*100 out4
*101 out40
*102 out41
*103 out42
*104 out43
*105 out44
*106 out45
*107 out46
*108 out47
*109 out48
*110 out49
*111 out5
*112 out50
*113 out51
*114 out52
*115 out53
*116 out54
*117 out55
*118 out56
*119 out57
*120 out58
*121 out59
*122 out6
*123 out60
*124 out61
*125 out7
*126 out8
*127 out9
*128 rst
*129 clknet_0_clk
*130 clknet_0_net170
*131 clknet_0_net177
*132 clknet_0_net179
*133 clknet_0_net180
*134 clknet_0_net186
*135 clknet_0_net276
*136 clknet_0_net281
*137 clknet_0_net389
*138 clknet_0_net391
*139 clknet_0_net398
*140 clknet_0_net420
*141 clknet_0_net495
*142 clknet_0_net502
*143 clknet_0_net511
*144 clknet_0_net532
*145 clknet_0_net577
*146 clknet_0_net595
*147 clknet_0_net600
*148 clknet_0_net602
*149 clknet_0_net608
*150 clknet_0_net610
*151 clknet_0_net611
*152 clknet_0_net615
*153 clknet_0_net709
*154 clknet_0_net710
*155 clknet_0_net711
*156 clknet_0_net744
*157 clknet_0_net758
*158 clknet_0_net759
*159 clknet_0_net775
*160 clknet_0_net776
*161 clknet_0_net777
*162 clknet_0_net796
*163 clknet_0_net797
*164 clknet_0_net798
*165 clknet_0_net817
*166 clknet_0_net818
*167 clknet_0_net879
*168 clknet_0_net901
*169 clknet_0_net902
*170 clknet_0_net905
*171 clknet_0_net910
*172 clknet_0_net911
*173 clknet_0_net924
*174 clknet_1_0__leaf_net170
*175 clknet_1_0__leaf_net177
*176 clknet_1_0__leaf_net179
*177 clknet_1_0__leaf_net180
*178 clknet_1_0__leaf_net186
*179 clknet_1_0__leaf_net276
*180 clknet_1_0__leaf_net281
*181 clknet_1_0__leaf_net389
*182 clknet_1_0__leaf_net391
*183 clknet_1_0__leaf_net398
*184 clknet_1_0__leaf_net420
*185 clknet_1_0__leaf_net495
*186 clknet_1_0__leaf_net502
*187 clknet_1_0__leaf_net511
*188 clknet_1_0__leaf_net532
*189 clknet_1_0__leaf_net577
*190 clknet_1_0__leaf_net595
*191 clknet_1_0__leaf_net600
*192 clknet_1_0__leaf_net602
*193 clknet_1_0__leaf_net608
*194 clknet_1_0__leaf_net610
*195 clknet_1_0__leaf_net611
*196 clknet_1_0__leaf_net615
*197 clknet_1_0__leaf_net709
*198 clknet_1_0__leaf_net710
*199 clknet_1_0__leaf_net711
*200 clknet_1_0__leaf_net744
*201 clknet_1_0__leaf_net758
*202 clknet_1_0__leaf_net759
*203 clknet_1_0__leaf_net775
*204 clknet_1_0__leaf_net776
*205 clknet_1_0__leaf_net777
*206 clknet_1_0__leaf_net796
*207 clknet_1_0__leaf_net797
*208 clknet_1_0__leaf_net798
*209 clknet_1_0__leaf_net817
*210 clknet_1_0__leaf_net818
*211 clknet_1_0__leaf_net879
*212 clknet_1_0__leaf_net901
*213 clknet_1_0__leaf_net902
*214 clknet_1_0__leaf_net905
*215 clknet_1_0__leaf_net910
*216 clknet_1_0__leaf_net911
*217 clknet_1_0__leaf_net924
*218 clknet_1_1__leaf_net170
*219 clknet_1_1__leaf_net177
*220 clknet_1_1__leaf_net179
*221 clknet_1_1__leaf_net180
*222 clknet_1_1__leaf_net186
*223 clknet_1_1__leaf_net276
*224 clknet_1_1__leaf_net281
*225 clknet_1_1__leaf_net389
*226 clknet_1_1__leaf_net391
*227 clknet_1_1__leaf_net398
*228 clknet_1_1__leaf_net420
*229 clknet_1_1__leaf_net495
*230 clknet_1_1__leaf_net502
*231 clknet_1_1__leaf_net511
*232 clknet_1_1__leaf_net532
*233 clknet_1_1__leaf_net577
*234 clknet_1_1__leaf_net595
*235 clknet_1_1__leaf_net600
*236 clknet_1_1__leaf_net602
*237 clknet_1_1__leaf_net608
*238 clknet_1_1__leaf_net610
*239 clknet_1_1__leaf_net611
*240 clknet_1_1__leaf_net615
*241 clknet_1_1__leaf_net709
*242 clknet_1_1__leaf_net710
*243 clknet_1_1__leaf_net711
*244 clknet_1_1__leaf_net744
*245 clknet_1_1__leaf_net758
*246 clknet_1_1__leaf_net759
*247 clknet_1_1__leaf_net775
*248 clknet_1_1__leaf_net776
*249 clknet_1_1__leaf_net777
*250 clknet_1_1__leaf_net796
*251 clknet_1_1__leaf_net797
*252 clknet_1_1__leaf_net798
*253 clknet_1_1__leaf_net817
*254 clknet_1_1__leaf_net818
*255 clknet_1_1__leaf_net879
*256 clknet_1_1__leaf_net901
*257 clknet_1_1__leaf_net902
*258 clknet_1_1__leaf_net905
*259 clknet_1_1__leaf_net910
*260 clknet_1_1__leaf_net911
*261 clknet_1_1__leaf_net924
*262 clknet_4_0_0_clk
*263 clknet_4_10_0_clk
*264 clknet_4_11_0_clk
*265 clknet_4_12_0_clk
*266 clknet_4_13_0_clk
*267 clknet_4_14_0_clk
*268 clknet_4_15_0_clk
*269 clknet_4_1_0_clk
*270 clknet_4_2_0_clk
*271 clknet_4_3_0_clk
*272 clknet_4_4_0_clk
*273 clknet_4_5_0_clk
*274 clknet_4_6_0_clk
*275 clknet_4_7_0_clk
*276 clknet_4_8_0_clk
*277 clknet_4_9_0_clk
*278 net0
*279 net1
*280 net10
*281 net100
*282 net1000
*283 net1001
*284 net1002
*285 net1003
*286 net1004
*287 net1005
*288 net1006
*289 net1007
*290 net1008
*291 net1009
*292 net101
*293 net1010
*294 net1011
*295 net1012
*296 net1013
*297 net1014
*298 net1015
*299 net1016
*300 net1017
*301 net1018
*302 net1019
*303 net102
*304 net1020
*305 net1021
*306 net1022
*307 net1023
*308 net1024
*309 net1025
*310 net1026
*311 net1027
*312 net1028
*313 net1029
*314 net103
*315 net1030
*316 net1031
*317 net1032
*318 net1033
*319 net1034
*320 net1035
*321 net1036
*322 net1037
*323 net1038
*324 net1039
*325 net104
*326 net1040
*327 net1041
*328 net1042
*329 net1043
*330 net1044
*331 net1045
*332 net1046
*333 net1047
*334 net1048
*335 net1049
*336 net105
*337 net1050
*338 net1051
*339 net1052
*340 net1053
*341 net1054
*342 net1055
*343 net1056
*344 net1057
*345 net1058
*346 net1059
*347 net106
*348 net1060
*349 net1061
*350 net1062
*351 net1063
*352 net1064
*353 net1065
*354 net1066
*355 net1067
*356 net1068
*357 net1069
*358 net107
*359 net1070
*360 net1071
*361 net1072
*362 net1073
*363 net1074
*364 net1075
*365 net1076
*366 net1077
*367 net1078
*368 net1079
*369 net108
*370 net1080
*371 net1081
*372 net109
*373 net11
*374 net110
*375 net111
*376 net112
*377 net113
*378 net114
*379 net115
*380 net116
*381 net117
*382 net118
*383 net119
*384 net12
*385 net120
*386 net121
*387 net122
*388 net123
*389 net124
*390 net125
*391 net126
*392 net127
*393 net128
*394 net129
*395 net13
*396 net130
*397 net131
*398 net132
*399 net133
*400 net134
*401 net135
*402 net136
*403 net137
*404 net138
*405 net139
*406 net14
*407 net140
*408 net141
*409 net142
*410 net143
*411 net144
*412 net145
*413 net146
*414 net147
*415 net148
*416 net149
*417 net15
*418 net150
*419 net151
*420 net152
*421 net153
*422 net154
*423 net155
*424 net156
*425 net157
*426 net158
*427 net159
*428 net16
*429 net160
*430 net161
*431 net162
*432 net163
*433 net164
*434 net165
*435 net166
*436 net167
*437 net168
*438 net169
*439 net17
*440 net170
*441 net171
*442 net172
*443 net173
*444 net174
*445 net175
*446 net176
*447 net177
*448 net178
*449 net179
*450 net18
*451 net180
*452 net181
*453 net182
*454 net183
*455 net184
*456 net185
*457 net186
*458 net187
*459 net188
*460 net189
*461 net19
*462 net190
*463 net191
*464 net192
*465 net193
*466 net194
*467 net195
*468 net196
*469 net197
*470 net198
*471 net199
*472 net2
*473 net20
*474 net200
*475 net201
*476 net202
*477 net203
*478 net204
*479 net205
*480 net206
*481 net207
*482 net208
*483 net209
*484 net21
*485 net210
*486 net211
*487 net212
*488 net213
*489 net214
*490 net215
*491 net216
*492 net217
*493 net218
*494 net219
*495 net22
*496 net220
*497 net221
*498 net222
*499 net223
*500 net224
*501 net225
*502 net226
*503 net227
*504 net228
*505 net229
*506 net23
*507 net230
*508 net231
*509 net232
*510 net233
*511 net234
*512 net235
*513 net236
*514 net237
*515 net238
*516 net239
*517 net24
*518 net240
*519 net241
*520 net242
*521 net243
*522 net244
*523 net245
*524 net246
*525 net247
*526 net248
*527 net249
*528 net25
*529 net250
*530 net251
*531 net252
*532 net253
*533 net254
*534 net255
*535 net256
*536 net257
*537 net258
*538 net259
*539 net26
*540 net260
*541 net261
*542 net262
*543 net263
*544 net264
*545 net265
*546 net266
*547 net267
*548 net268
*549 net269
*550 net27
*551 net270
*552 net271
*553 net272
*554 net273
*555 net274
*556 net275
*557 net276
*558 net277
*559 net278
*560 net279
*561 net28
*562 net280
*563 net281
*564 net282
*565 net283
*566 net284
*567 net285
*568 net286
*569 net287
*570 net288
*571 net289
*572 net29
*573 net290
*574 net291
*575 net292
*576 net293
*577 net294
*578 net295
*579 net296
*580 net297
*581 net298
*582 net299
*583 net3
*584 net30
*585 net300
*586 net301
*587 net302
*588 net303
*589 net304
*590 net305
*591 net306
*592 net307
*593 net308
*594 net309
*595 net31
*596 net310
*597 net311
*598 net312
*599 net313
*600 net314
*601 net315
*602 net316
*603 net317
*604 net318
*605 net319
*606 net32
*607 net320
*608 net321
*609 net322
*610 net323
*611 net324
*612 net325
*613 net326
*614 net327
*615 net328
*616 net329
*617 net33
*618 net330
*619 net331
*620 net332
*621 net333
*622 net334
*623 net335
*624 net336
*625 net337
*626 net338
*627 net339
*628 net34
*629 net340
*630 net341
*631 net342
*632 net343
*633 net344
*634 net345
*635 net346
*636 net347
*637 net348
*638 net349
*639 net35
*640 net350
*641 net351
*642 net352
*643 net353
*644 net354
*645 net355
*646 net356
*647 net357
*648 net358
*649 net359
*650 net36
*651 net360
*652 net361
*653 net362
*654 net363
*655 net364
*656 net365
*657 net366
*658 net367
*659 net368
*660 net369
*661 net37
*662 net370
*663 net371
*664 net372
*665 net373
*666 net374
*667 net375
*668 net376
*669 net377
*670 net378
*671 net379
*672 net38
*673 net380
*674 net381
*675 net382
*676 net383
*677 net384
*678 net385
*679 net386
*680 net387
*681 net388
*682 net389
*683 net39
*684 net390
*685 net391
*686 net392
*687 net393
*688 net394
*689 net395
*690 net396
*691 net397
*692 net398
*693 net399
*694 net4
*695 net40
*696 net400
*697 net401
*698 net402
*699 net403
*700 net404
*701 net405
*702 net406
*703 net407
*704 net408
*705 net409
*706 net41
*707 net410
*708 net411
*709 net412
*710 net413
*711 net414
*712 net415
*713 net416
*714 net417
*715 net418
*716 net419
*717 net42
*718 net420
*719 net421
*720 net422
*721 net423
*722 net424
*723 net425
*724 net426
*725 net427
*726 net428
*727 net429
*728 net43
*729 net430
*730 net431
*731 net432
*732 net433
*733 net434
*734 net435
*735 net436
*736 net437
*737 net438
*738 net439
*739 net44
*740 net440
*741 net441
*742 net442
*743 net443
*744 net444
*745 net445
*746 net446
*747 net447
*748 net448
*749 net449
*750 net45
*751 net450
*752 net451
*753 net452
*754 net453
*755 net454
*756 net455
*757 net456
*758 net457
*759 net458
*760 net459
*761 net46
*762 net460
*763 net461
*764 net462
*765 net463
*766 net464
*767 net465
*768 net466
*769 net467
*770 net468
*771 net469
*772 net47
*773 net470
*774 net471
*775 net472
*776 net473
*777 net474
*778 net475
*779 net476
*780 net477
*781 net478
*782 net479
*783 net48
*784 net480
*785 net481
*786 net482
*787 net483
*788 net484
*789 net485
*790 net486
*791 net487
*792 net488
*793 net489
*794 net49
*795 net490
*796 net491
*797 net492
*798 net493
*799 net494
*800 net495
*801 net496
*802 net497
*803 net498
*804 net499
*805 net5
*806 net50
*807 net500
*808 net501
*809 net502
*810 net503
*811 net504
*812 net505
*813 net506
*814 net507
*815 net508
*816 net509
*817 net51
*818 net510
*819 net511
*820 net512
*821 net513
*822 net514
*823 net515
*824 net516
*825 net517
*826 net518
*827 net519
*828 net52
*829 net520
*830 net521
*831 net522
*832 net523
*833 net524
*834 net525
*835 net526
*836 net527
*837 net528
*838 net529
*839 net53
*840 net530
*841 net531
*842 net532
*843 net533
*844 net534
*845 net535
*846 net536
*847 net537
*848 net538
*849 net539
*850 net54
*851 net540
*852 net541
*853 net542
*854 net543
*855 net544
*856 net545
*857 net546
*858 net547
*859 net548
*860 net549
*861 net55
*862 net550
*863 net551
*864 net552
*865 net553
*866 net554
*867 net555
*868 net556
*869 net557
*870 net558
*871 net559
*872 net56
*873 net560
*874 net561
*875 net562
*876 net563
*877 net564
*878 net565
*879 net566
*880 net567
*881 net568
*882 net569
*883 net57
*884 net570
*885 net571
*886 net572
*887 net573
*888 net574
*889 net575
*890 net576
*891 net577
*892 net578
*893 net579
*894 net58
*895 net580
*896 net581
*897 net582
*898 net583
*899 net584
*900 net585
*901 net586
*902 net587
*903 net588
*904 net589
*905 net59
*906 net590
*907 net591
*908 net592
*909 net593
*910 net594
*911 net595
*912 net596
*913 net597
*914 net598
*915 net599
*916 net6
*917 net60
*918 net600
*919 net601
*920 net602
*921 net603
*922 net604
*923 net605
*924 net606
*925 net607
*926 net608
*927 net609
*928 net61
*929 net610
*930 net611
*931 net612
*932 net613
*933 net614
*934 net615
*935 net616
*936 net617
*937 net618
*938 net619
*939 net62
*940 net620
*941 net621
*942 net622
*943 net623
*944 net624
*945 net625
*946 net626
*947 net627
*948 net628
*949 net629
*950 net63
*951 net630
*952 net631
*953 net632
*954 net633
*955 net634
*956 net635
*957 net636
*958 net637
*959 net638
*960 net639
*961 net64
*962 net640
*963 net641
*964 net642
*965 net643
*966 net644
*967 net645
*968 net646
*969 net647
*970 net648
*971 net649
*972 net65
*973 net650
*974 net651
*975 net652
*976 net653
*977 net654
*978 net655
*979 net656
*980 net657
*981 net658
*982 net659
*983 net66
*984 net660
*985 net661
*986 net662
*987 net663
*988 net664
*989 net665
*990 net666
*991 net667
*992 net668
*993 net669
*994 net67
*995 net670
*996 net671
*997 net672
*998 net673
*999 net674
*1000 net675
*1001 net676
*1002 net677
*1003 net678
*1004 net679
*1005 net68
*1006 net680
*1007 net681
*1008 net682
*1009 net683
*1010 net684
*1011 net685
*1012 net686
*1013 net687
*1014 net688
*1015 net689
*1016 net69
*1017 net690
*1018 net691
*1019 net692
*1020 net693
*1021 net694
*1022 net695
*1023 net696
*1024 net697
*1025 net698
*1026 net699
*1027 net7
*1028 net70
*1029 net700
*1030 net701
*1031 net702
*1032 net703
*1033 net704
*1034 net705
*1035 net706
*1036 net707
*1037 net708
*1038 net709
*1039 net71
*1040 net710
*1041 net711
*1042 net712
*1043 net713
*1044 net714
*1045 net715
*1046 net716
*1047 net717
*1048 net718
*1049 net719
*1050 net72
*1051 net720
*1052 net721
*1053 net722
*1054 net723
*1055 net724
*1056 net725
*1057 net726
*1058 net727
*1059 net728
*1060 net729
*1061 net73
*1062 net730
*1063 net731
*1064 net732
*1065 net733
*1066 net734
*1067 net735
*1068 net736
*1069 net737
*1070 net738
*1071 net739
*1072 net74
*1073 net740
*1074 net741
*1075 net742
*1076 net743
*1077 net744
*1078 net745
*1079 net746
*1080 net747
*1081 net748
*1082 net749
*1083 net75
*1084 net750
*1085 net751
*1086 net752
*1087 net753
*1088 net754
*1089 net755
*1090 net756
*1091 net757
*1092 net758
*1093 net759
*1094 net76
*1095 net760
*1096 net761
*1097 net762
*1098 net763
*1099 net764
*1100 net765
*1101 net766
*1102 net767
*1103 net768
*1104 net769
*1105 net77
*1106 net770
*1107 net771
*1108 net772
*1109 net773
*1110 net774
*1111 net775
*1112 net776
*1113 net777
*1114 net778
*1115 net779
*1116 net78
*1117 net780
*1118 net781
*1119 net782
*1120 net783
*1121 net784
*1122 net785
*1123 net786
*1124 net787
*1125 net788
*1126 net789
*1127 net79
*1128 net790
*1129 net791
*1130 net792
*1131 net793
*1132 net794
*1133 net795
*1134 net796
*1135 net797
*1136 net798
*1137 net799
*1138 net8
*1139 net80
*1140 net800
*1141 net801
*1142 net802
*1143 net803
*1144 net804
*1145 net805
*1146 net806
*1147 net807
*1148 net808
*1149 net809
*1150 net81
*1151 net810
*1152 net811
*1153 net812
*1154 net813
*1155 net814
*1156 net815
*1157 net816
*1158 net817
*1159 net818
*1160 net819
*1161 net82
*1162 net820
*1163 net821
*1164 net822
*1165 net823
*1166 net824
*1167 net825
*1168 net826
*1169 net827
*1170 net828
*1171 net829
*1172 net83
*1173 net830
*1174 net831
*1175 net832
*1176 net833
*1177 net834
*1178 net835
*1179 net836
*1180 net837
*1181 net838
*1182 net839
*1183 net84
*1184 net840
*1185 net841
*1186 net842
*1187 net843
*1188 net844
*1189 net845
*1190 net846
*1191 net847
*1192 net848
*1193 net849
*1194 net85
*1195 net850
*1196 net851
*1197 net852
*1198 net853
*1199 net854
*1200 net855
*1201 net856
*1202 net857
*1203 net858
*1204 net859
*1205 net86
*1206 net860
*1207 net861
*1208 net862
*1209 net863
*1210 net864
*1211 net865
*1212 net866
*1213 net867
*1214 net868
*1215 net869
*1216 net87
*1217 net870
*1218 net871
*1219 net872
*1220 net873
*1221 net874
*1222 net875
*1223 net876
*1224 net877
*1225 net878
*1226 net879
*1227 net88
*1228 net880
*1229 net881
*1230 net882
*1231 net883
*1232 net884
*1233 net885
*1234 net886
*1235 net887
*1236 net888
*1237 net889
*1238 net89
*1239 net890
*1240 net891
*1241 net892
*1242 net893
*1243 net894
*1244 net895
*1245 net896
*1246 net897
*1247 net898
*1248 net899
*1249 net9
*1250 net90
*1251 net900
*1252 net901
*1253 net902
*1254 net903
*1255 net904
*1256 net905
*1257 net906
*1258 net907
*1259 net908
*1260 net909
*1261 net91
*1262 net910
*1263 net911
*1264 net912
*1265 net913
*1266 net914
*1267 net915
*1268 net916
*1269 net917
*1270 net918
*1271 net919
*1272 net92
*1273 net920
*1274 net921
*1275 net922
*1276 net923
*1277 net924
*1278 net925
*1279 net926
*1280 net927
*1281 net928
*1282 net929
*1283 net93
*1284 net930
*1285 net931
*1286 net932
*1287 net933
*1288 net934
*1289 net935
*1290 net936
*1291 net937
*1292 net938
*1293 net939
*1294 net94
*1295 net940
*1296 net941
*1297 net942
*1298 net943
*1299 net944
*1300 net945
*1301 net946
*1302 net947
*1303 net948
*1304 net949
*1305 net95
*1306 net950
*1307 net951
*1308 net952
*1309 net953
*1310 net954
*1311 net955
*1312 net956
*1313 net957
*1314 net958
*1315 net959
*1316 net96
*1317 net960
*1318 net961
*1319 net962
*1320 net963
*1321 net964
*1322 net965
*1323 net966
*1324 net967
*1325 net968
*1326 net969
*1327 net97
*1328 net970
*1329 net971
*1330 net972
*1331 net973
*1332 net974
*1333 net975
*1334 net976
*1335 net977
*1336 net978
*1337 net979
*1338 net98
*1339 net980
*1340 net981
*1341 net982
*1342 net983
*1343 net984
*1344 net985
*1345 net986
*1346 net987
*1347 net988
*1348 net989
*1349 net99
*1350 net990
*1351 net991
*1352 net992
*1353 net993
*1354 net994
*1355 net995
*1356 net996
*1357 net997
*1358 net998
*1359 net999
*1360 ANTENNA_1
*1361 ANTENNA_2
*1362 ANTENNA_c100_A1
*1363 ANTENNA_c100_B1_N
*1364 ANTENNA_c100_X
*1365 ANTENNA_c101_A1
*1366 ANTENNA_c101_A2
*1367 ANTENNA_c101_A4
*1368 ANTENNA_c102_A1
*1369 ANTENNA_c102_A2
*1370 ANTENNA_c102_B1_N
*1371 ANTENNA_c103_A3
*1372 ANTENNA_c103_B1
*1373 ANTENNA_c104_A2
*1374 ANTENNA_c104_S0
*1375 ANTENNA_c104_S1
*1376 ANTENNA_c105_A2
*1377 ANTENNA_c105_A3
*1378 ANTENNA_c105_A4
*1379 ANTENNA_c105_B1
*1380 ANTENNA_c106_A0
*1381 ANTENNA_c106_A3
*1382 ANTENNA_c107_A1
*1383 ANTENNA_c107_A2
*1384 ANTENNA_c107_A4
*1385 ANTENNA_c107_X
*1386 ANTENNA_c108_S1
*1387 ANTENNA_c108_X
*1388 ANTENNA_c109_A3
*1389 ANTENNA_c110_A0
*1390 ANTENNA_c110_A1
*1391 ANTENNA_c110_A2
*1392 ANTENNA_c110_A3
*1393 ANTENNA_c110_S0
*1394 ANTENNA_c110_S1
*1395 ANTENNA_c111_A2
*1396 ANTENNA_c111_B1_N
*1397 ANTENNA_c112_A1
*1398 ANTENNA_c112_A2
*1399 ANTENNA_c112_A3
*1400 ANTENNA_c112_B1
*1401 ANTENNA_c113_A1
*1402 ANTENNA_c113_B1_N
*1403 ANTENNA_c113_X
*1404 ANTENNA_c114_A1
*1405 ANTENNA_c114_A2
*1406 ANTENNA_c114_B1_N
*1407 ANTENNA_c115_A3
*1408 ANTENNA_c115_B1
*1409 ANTENNA_c116_A1
*1410 ANTENNA_c116_B1
*1411 ANTENNA_c118_A1
*1412 ANTENNA_c118_B1_N
*1413 ANTENNA_c118_X
*1414 ANTENNA_c119_A1
*1415 ANTENNA_c119_A2
*1416 ANTENNA_c119_A3
*1417 ANTENNA_c119_A4
*1418 ANTENNA_c119_B1
*1419 ANTENNA_c120_A1
*1420 ANTENNA_c120_A4
*1421 ANTENNA_c120_B1
*1422 ANTENNA_c121_B1
*1423 ANTENNA_c121_X
*1424 ANTENNA_c122_A1
*1425 ANTENNA_c122_A2
*1426 ANTENNA_c122_B1_N
*1427 ANTENNA_c123_A2
*1428 ANTENNA_c123_S0
*1429 ANTENNA_c123_S1
*1430 ANTENNA_c124_A1
*1431 ANTENNA_c124_B1_N
*1432 ANTENNA_c125_A1
*1433 ANTENNA_c125_A4
*1434 ANTENNA_c126_A2
*1435 ANTENNA_c126_A3
*1436 ANTENNA_c126_S0
*1437 ANTENNA_c126_X
*1438 ANTENNA_c127_A0
*1439 ANTENNA_c127_A2
*1440 ANTENNA_c127_A3
*1441 ANTENNA_c127_S0
*1442 ANTENNA_c127_S1
*1443 ANTENNA_c128_A1
*1444 ANTENNA_c128_A3
*1445 ANTENNA_c128_B1
*1446 ANTENNA_c129_A0
*1447 ANTENNA_c129_A1
*1448 ANTENNA_c129_A3
*1449 ANTENNA_c129_S0
*1450 ANTENNA_c130_S0
*1451 ANTENNA_c131_CLK_N
*1452 ANTENNA_c131_D
*1453 ANTENNA_c131_SCE
*1454 ANTENNA_c132_A1
*1455 ANTENNA_c132_A2
*1456 ANTENNA_c132_B1_N
*1457 ANTENNA_c133_A2
*1458 ANTENNA_c133_A3
*1459 ANTENNA_c133_B1
*1460 ANTENNA_c133_X
*1461 ANTENNA_c134_A1
*1462 ANTENNA_c134_A2
*1463 ANTENNA_c134_B1_N
*1464 ANTENNA_c134_X
*1465 ANTENNA_c135_A1
*1466 ANTENNA_c135_A2
*1467 ANTENNA_c135_B1_N
*1468 ANTENNA_c135_X
*1469 ANTENNA_c136_A1
*1470 ANTENNA_c136_A2
*1471 ANTENNA_c136_B1_N
*1472 ANTENNA_c136_X
*1473 ANTENNA_c137_A1
*1474 ANTENNA_c137_A2
*1475 ANTENNA_c137_B1_N
*1476 ANTENNA_c137_X
*1477 ANTENNA_c138_A1
*1478 ANTENNA_c138_A2
*1479 ANTENNA_c138_X
*1480 ANTENNA_c139_A2
*1481 ANTENNA_c139_B1_N
*1482 ANTENNA_c139_X
*1483 ANTENNA_c140_A1
*1484 ANTENNA_c140_A2
*1485 ANTENNA_c140_B1_N
*1486 ANTENNA_c141_A1
*1487 ANTENNA_c141_A2
*1488 ANTENNA_c141_A3
*1489 ANTENNA_c141_B1
*1490 ANTENNA_c141_X
*1491 ANTENNA_c142_A1
*1492 ANTENNA_c142_A2
*1493 ANTENNA_c142_A3
*1494 ANTENNA_c142_A4
*1495 ANTENNA_c142_B1
*1496 ANTENNA_c142_X
*1497 ANTENNA_c143_A
*1498 ANTENNA_c143_B
*1499 ANTENNA_c143_Y
*1500 ANTENNA_c144_A1
*1501 ANTENNA_c144_A2
*1502 ANTENNA_c144_B1_N
*1503 ANTENNA_c144_X
*1504 ANTENNA_c145_A1
*1505 ANTENNA_c145_B1_N
*1506 ANTENNA_c145_X
*1507 ANTENNA_c146_A1
*1508 ANTENNA_c146_A2
*1509 ANTENNA_c146_B1_N
*1510 ANTENNA_c146_X
*1511 ANTENNA_c147_A0
*1512 ANTENNA_c147_A1
*1513 ANTENNA_c147_A2
*1514 ANTENNA_c147_A3
*1515 ANTENNA_c147_S0
*1516 ANTENNA_c147_S1
*1517 ANTENNA_c147_X
*1518 ANTENNA_c148_A1
*1519 ANTENNA_c148_A2
*1520 ANTENNA_c148_B1_N
*1521 ANTENNA_c149_A0
*1522 ANTENNA_c149_A1
*1523 ANTENNA_c149_A2
*1524 ANTENNA_c149_A3
*1525 ANTENNA_c149_S0
*1526 ANTENNA_c149_S1
*1527 ANTENNA_c150_A0
*1528 ANTENNA_c150_A1
*1529 ANTENNA_c150_A3
*1530 ANTENNA_c150_S0
*1531 ANTENNA_c150_S1
*1532 ANTENNA_c150_X
*1533 ANTENNA_c151_A2
*1534 ANTENNA_c151_X
*1535 ANTENNA_c152_A0
*1536 ANTENNA_c152_A2
*1537 ANTENNA_c152_S0
*1538 ANTENNA_c152_S1
*1539 ANTENNA_c152_X
*1540 ANTENNA_c153_A0
*1541 ANTENNA_c153_A2
*1542 ANTENNA_c153_A3
*1543 ANTENNA_c153_S0
*1544 ANTENNA_c153_S1
*1545 ANTENNA_c153_X
*1546 ANTENNA_c154_A1
*1547 ANTENNA_c154_A2
*1548 ANTENNA_c154_A3
*1549 ANTENNA_c154_A4
*1550 ANTENNA_c154_B1
*1551 ANTENNA_c155_A1
*1552 ANTENNA_c155_A2
*1553 ANTENNA_c155_B1_N
*1554 ANTENNA_c155_X
*1555 ANTENNA_c156_A1
*1556 ANTENNA_c156_A2
*1557 ANTENNA_c157_A1
*1558 ANTENNA_c157_A3
*1559 ANTENNA_c157_B1
*1560 ANTENNA_c157_X
*1561 ANTENNA_c158_A1
*1562 ANTENNA_c158_A2
*1563 ANTENNA_c158_A3
*1564 ANTENNA_c158_B1
*1565 ANTENNA_c159_A2
*1566 ANTENNA_c159_A3
*1567 ANTENNA_c159_A4
*1568 ANTENNA_c159_B1
*1569 ANTENNA_c160_A1
*1570 ANTENNA_c160_A2
*1571 ANTENNA_c161_A2
*1572 ANTENNA_c161_B1_N
*1573 ANTENNA_c161_X
*1574 ANTENNA_c162_A0
*1575 ANTENNA_c162_A2
*1576 ANTENNA_c162_A3
*1577 ANTENNA_c162_S0
*1578 ANTENNA_c162_S1
*1579 ANTENNA_c162_X
*1580 ANTENNA_c163_A1
*1581 ANTENNA_c163_A2
*1582 ANTENNA_c163_A3
*1583 ANTENNA_c163_A4
*1584 ANTENNA_c163_B1
*1585 ANTENNA_c163_X
*1586 ANTENNA_c164_A1
*1587 ANTENNA_c164_A2
*1588 ANTENNA_c164_A3
*1589 ANTENNA_c164_A4
*1590 ANTENNA_c164_B1
*1591 ANTENNA_c165_A1
*1592 ANTENNA_c165_A3
*1593 ANTENNA_c165_A4
*1594 ANTENNA_c165_B1
*1595 ANTENNA_c165_X
*1596 ANTENNA_c166_A1
*1597 ANTENNA_c166_A2
*1598 ANTENNA_c166_A3
*1599 ANTENNA_c166_A4
*1600 ANTENNA_c166_B1
*1601 ANTENNA_c167_A4
*1602 ANTENNA_c167_B1
*1603 ANTENNA_c167_X
*1604 ANTENNA_c168_A1
*1605 ANTENNA_c168_A2
*1606 ANTENNA_c168_A4
*1607 ANTENNA_c168_B1
*1608 ANTENNA_c168_X
*1609 ANTENNA_c169_A0
*1610 ANTENNA_c169_A2
*1611 ANTENNA_c169_A3
*1612 ANTENNA_c169_S1
*1613 ANTENNA_c170_A2
*1614 ANTENNA_c170_A3
*1615 ANTENNA_c170_A4
*1616 ANTENNA_c170_X
*1617 ANTENNA_c171_A1
*1618 ANTENNA_c171_A3
*1619 ANTENNA_c171_A4
*1620 ANTENNA_c171_B1
*1621 ANTENNA_c171_X
*1622 ANTENNA_c172_A1
*1623 ANTENNA_c172_A2
*1624 ANTENNA_c172_A3
*1625 ANTENNA_c172_S1
*1626 ANTENNA_c172_X
*1627 ANTENNA_c173_A0
*1628 ANTENNA_c173_A1
*1629 ANTENNA_c173_A2
*1630 ANTENNA_c173_A3
*1631 ANTENNA_c173_S0
*1632 ANTENNA_c173_S1
*1633 ANTENNA_c173_X
*1634 ANTENNA_c174_A0
*1635 ANTENNA_c174_A1
*1636 ANTENNA_c174_A2
*1637 ANTENNA_c174_A3
*1638 ANTENNA_c174_S1
*1639 ANTENNA_c175_A0
*1640 ANTENNA_c175_A1
*1641 ANTENNA_c175_A3
*1642 ANTENNA_c175_S0
*1643 ANTENNA_c175_S1
*1644 ANTENNA_c175_X
*1645 ANTENNA_c176_A1
*1646 ANTENNA_c176_A2
*1647 ANTENNA_c176_A3
*1648 ANTENNA_c176_A4
*1649 ANTENNA_c176_B1
*1650 ANTENNA_c177_A2
*1651 ANTENNA_c177_B1_N
*1652 ANTENNA_c178_A2
*1653 ANTENNA_c178_B1_N
*1654 ANTENNA_c178_X
*1655 ANTENNA_c179_A1
*1656 ANTENNA_c179_A3
*1657 ANTENNA_c179_A4
*1658 ANTENNA_c179_B1
*1659 ANTENNA_c179_X
*1660 ANTENNA_c180_A1
*1661 ANTENNA_c180_A2
*1662 ANTENNA_c180_B1_N
*1663 ANTENNA_c181_A1
*1664 ANTENNA_c181_A2
*1665 ANTENNA_c181_A3
*1666 ANTENNA_c181_A4
*1667 ANTENNA_c181_B1
*1668 ANTENNA_c182_A1
*1669 ANTENNA_c182_A2
*1670 ANTENNA_c182_B1_N
*1671 ANTENNA_c182_X
*1672 ANTENNA_c183_A2
*1673 ANTENNA_c183_B1_N
*1674 ANTENNA_c184_A2
*1675 ANTENNA_c184_A3
*1676 ANTENNA_c184_A4
*1677 ANTENNA_c184_B1
*1678 ANTENNA_c185_A1
*1679 ANTENNA_c185_A2
*1680 ANTENNA_c185_A3
*1681 ANTENNA_c185_X
*1682 ANTENNA_c186_A1
*1683 ANTENNA_c186_A2
*1684 ANTENNA_c186_X
*1685 ANTENNA_c187_A1
*1686 ANTENNA_c187_A2
*1687 ANTENNA_c187_A3
*1688 ANTENNA_c187_A4
*1689 ANTENNA_c187_B1
*1690 ANTENNA_c188_A2
*1691 ANTENNA_c188_B1_N
*1692 ANTENNA_c189_A2
*1693 ANTENNA_c189_B1_N
*1694 ANTENNA_c190_X
*1695 ANTENNA_c191_A3
*1696 ANTENNA_c191_A4
*1697 ANTENNA_c191_B1
*1698 ANTENNA_c191_X
*1699 ANTENNA_c192_A1
*1700 ANTENNA_c192_A3
*1701 ANTENNA_c192_A4
*1702 ANTENNA_c192_B1
*1703 ANTENNA_c192_X
*1704 ANTENNA_c193_A1
*1705 ANTENNA_c193_A2
*1706 ANTENNA_c193_A4
*1707 ANTENNA_c194_B1
*1708 ANTENNA_c194_X
*1709 ANTENNA_c195_A2
*1710 ANTENNA_c195_B1_N
*1711 ANTENNA_c195_X
*1712 ANTENNA_c196_A2
*1713 ANTENNA_c196_A3
*1714 ANTENNA_c196_S1
*1715 ANTENNA_c196_X
*1716 ANTENNA_c197_S0
*1717 ANTENNA_c197_S1
*1718 ANTENNA_c197_X
*1719 ANTENNA_c198_A2
*1720 ANTENNA_c198_B1_N
*1721 ANTENNA_c199_A2
*1722 ANTENNA_c199_B1_N
*1723 ANTENNA_c199_X
*1724 ANTENNA_c200_A1
*1725 ANTENNA_c200_A2
*1726 ANTENNA_c200_B1_N
*1727 ANTENNA_c200_X
*1728 ANTENNA_c201_A2
*1729 ANTENNA_c201_B1_N
*1730 ANTENNA_c201_X
*1731 ANTENNA_c202_A1
*1732 ANTENNA_c202_A4
*1733 ANTENNA_c203_A4
*1734 ANTENNA_c203_B1
*1735 ANTENNA_c204_A1
*1736 ANTENNA_c204_A2
*1737 ANTENNA_c204_A3
*1738 ANTENNA_c204_B1
*1739 ANTENNA_c205_A1
*1740 ANTENNA_c205_B1_N
*1741 ANTENNA_c205_X
*1742 ANTENNA_c206_A1
*1743 ANTENNA_c206_A2
*1744 ANTENNA_c206_A3
*1745 ANTENNA_c206_B1
*1746 ANTENNA_c207_A1
*1747 ANTENNA_c207_A2
*1748 ANTENNA_c207_A3
*1749 ANTENNA_c207_S0
*1750 ANTENNA_c208_A1
*1751 ANTENNA_c208_A2
*1752 ANTENNA_c208_B1_N
*1753 ANTENNA_c209_A1
*1754 ANTENNA_c209_A2
*1755 ANTENNA_c209_B1_N
*1756 ANTENNA_c209_X
*1757 ANTENNA_c210_CLK_N
*1758 ANTENNA_c210_D
*1759 ANTENNA_c210_Q
*1760 ANTENNA_c210_Q_N
*1761 ANTENNA_c210_RESET_B
*1762 ANTENNA_c210_SCD
*1763 ANTENNA_c211_A0
*1764 ANTENNA_c211_A2
*1765 ANTENNA_c211_A3
*1766 ANTENNA_c211_S1
*1767 ANTENNA_c211_X
*1768 ANTENNA_c212_A1
*1769 ANTENNA_c212_A2
*1770 ANTENNA_c212_A3
*1771 ANTENNA_c212_A4
*1772 ANTENNA_c212_B1
*1773 ANTENNA_c213_A1
*1774 ANTENNA_c213_S1
*1775 ANTENNA_c213_X
*1776 ANTENNA_c214_A2
*1777 ANTENNA_c214_S0
*1778 ANTENNA_c214_S1
*1779 ANTENNA_c215_A2
*1780 ANTENNA_c215_A3
*1781 ANTENNA_c215_S0
*1782 ANTENNA_c216_A1
*1783 ANTENNA_c216_A2
*1784 ANTENNA_c216_A3
*1785 ANTENNA_c217_A1
*1786 ANTENNA_c217_A2
*1787 ANTENNA_c217_S0
*1788 ANTENNA_c218_A1
*1789 ANTENNA_c218_A2
*1790 ANTENNA_c218_A3
*1791 ANTENNA_c218_S0
*1792 ANTENNA_c219_A1
*1793 ANTENNA_c219_A2
*1794 ANTENNA_c219_A3
*1795 ANTENNA_c219_S1
*1796 ANTENNA_c220_A1
*1797 ANTENNA_c220_A2
*1798 ANTENNA_c220_A3
*1799 ANTENNA_c220_A4
*1800 ANTENNA_c220_B1
*1801 ANTENNA_c220_X
*1802 ANTENNA_c221_CLK
*1803 ANTENNA_c221_Q
*1804 ANTENNA_c221_Q_N
*1805 ANTENNA_c221_RESET_B
*1806 ANTENNA_c221_SCD
*1807 ANTENNA_c221_SCE
*1808 ANTENNA_c222_A1
*1809 ANTENNA_c222_A2
*1810 ANTENNA_c222_A3
*1811 ANTENNA_c222_A4
*1812 ANTENNA_c223_RESET_B
*1813 ANTENNA_c223_SCD
*1814 ANTENNA_c223_SCE
*1815 ANTENNA_c223_SET_B
*1816 ANTENNA_c224_A1
*1817 ANTENNA_c224_A2
*1818 ANTENNA_c224_A3
*1819 ANTENNA_c224_S0
*1820 ANTENNA_c225_A1
*1821 ANTENNA_c225_A3
*1822 ANTENNA_c225_X
*1823 ANTENNA_c226_A2
*1824 ANTENNA_c226_A3
*1825 ANTENNA_c226_S0
*1826 ANTENNA_c227_A1
*1827 ANTENNA_c227_A2
*1828 ANTENNA_c227_A3
*1829 ANTENNA_c227_S0
*1830 ANTENNA_c228_A1
*1831 ANTENNA_c228_A2
*1832 ANTENNA_c228_A3
*1833 ANTENNA_c228_S0
*1834 ANTENNA_c229_A2
*1835 ANTENNA_c229_A3
*1836 ANTENNA_c229_S0
*1837 ANTENNA_c229_S1
*1838 ANTENNA_c230_A1
*1839 ANTENNA_c230_A2
*1840 ANTENNA_c231_A0
*1841 ANTENNA_c231_A1
*1842 ANTENNA_c231_A2
*1843 ANTENNA_c231_A3
*1844 ANTENNA_c231_S0
*1845 ANTENNA_c231_S1
*1846 ANTENNA_c232_A3
*1847 ANTENNA_c232_A4
*1848 ANTENNA_c233_Q
*1849 ANTENNA_c233_Q_N
*1850 ANTENNA_c233_RESET_B
*1851 ANTENNA_c233_SCD
*1852 ANTENNA_c233_SCE
*1853 ANTENNA_c234_A3
*1854 ANTENNA_c234_A4
*1855 ANTENNA_c234_B1
*1856 ANTENNA_c235_A1
*1857 ANTENNA_c235_A2
*1858 ANTENNA_c235_S0
*1859 ANTENNA_c235_S1
*1860 ANTENNA_c236_A1
*1861 ANTENNA_c236_A2
*1862 ANTENNA_c236_S0
*1863 ANTENNA_c236_X
*1864 ANTENNA_c237_A0
*1865 ANTENNA_c237_A2
*1866 ANTENNA_c237_S0
*1867 ANTENNA_c237_S1
*1868 ANTENNA_c238_A1
*1869 ANTENNA_c238_S0
*1870 ANTENNA_c238_S1